  0
SECTION
  2
ENTITIES
999
DXF created from EnergyPlus
999
Program Version,EnergyPlus, Version 8.9.0-40101eaafd, YMD=2023.03.19 17:23
999
Polygon Action,TRIANGULATE3DFACE
999
Color Scheme,Default
999
Text - True North
  0
TEXT
  8
1
  6
Continuous
 62
  3
 10
      -38.67590
 20
       68.45073
 30
        0.10000
 40
 .25
  1
True North
 41
 0.0
  7
MONOTXT
210
0.0
220
0.0
230
1.0
999
Text - Building Title
  0
TEXT
  8
1
  6
Continuous
 62
  3
 10
      -41.67590
 20
       64.45073
 30
        0.10000
 40
 .4
  1
Building - Building
 41
 0.0
  7
MONOTXT
210
0.0
220
0.0
230
1.0
999
North Arrow Stem
  0
3DFACE
  8
1
 62
  3
 10
      -37.67590
 20
       68.45073
 30
        0.10000
 11
      -37.67590
 21
       68.45073
 31
        0.00000
 12
      -37.67590
 22
       65.45073
 32
        0.00000
 13
      -37.67590
 23
       65.45073
 33
        0.10000
999
North Arrow Head 1
  0
3DFACE
  8
1
 62
  3
 10
      -37.67590
 20
       68.45073
 30
        0.10000
 11
      -37.67590
 21
       68.45073
 31
        0.00000
 12
      -38.17590
 22
       67.58470
 32
        0.00000
 13
      -38.17590
 23
       67.58470
 33
        0.10000
999
North Arrow Head 2
  0
3DFACE
  8
1
 62
  3
 10
      -37.67590
 20
       68.45073
 30
        0.10000
 11
      -37.67590
 21
       68.45073
 31
        0.00000
 12
      -37.17590
 22
       67.58470
 32
        0.00000
 13
      -37.17590
 23
       67.58470
 33
        0.10000
999
North Arrow Side 1
  0
3DFACE
  8
1
 62
  3
 10
      -38.17590
 20
       69.95073
 30
        0.10000
 11
      -38.17590
 21
       69.95073
 31
        0.00000
 12
      -38.17590
 22
       68.95073
 32
        0.00000
 13
      -38.17590
 23
       68.95073
 33
        0.10000
999
North Arrow Side 2
  0
3DFACE
  8
1
 62
  3
 10
      -38.17590
 20
       69.95073
 30
        0.10000
 11
      -38.17590
 21
       69.95073
 31
        0.00000
 12
      -37.17590
 22
       68.95073
 32
        0.00000
 13
      -37.17590
 23
       68.95073
 33
        0.10000
999
North Arrow Side 3
  0
3DFACE
  8
1
 62
  3
 10
      -37.17590
 20
       69.95073
 30
        0.10000
 11
      -37.17590
 21
       69.95073
 31
        0.00000
 12
      -37.17590
 22
       68.95073
 32
        0.00000
 13
      -37.17590
 23
       68.95073
 33
        0.10000
999
Zone Names
999
Zone=1:99_CORE
999
Zone=2:00_CORE
999
Zone=3:01_CORE
999
Zone=4:02_CORE
999
Zone=5:03_CORE
999
Zone=6:04_CORE
999
Zone=7:05_52XLIVING
999
Zone=8:05_52XMAMAD
999
Zone=9:05_53XLIVING
999
Zone=10:05_53XMAMAD
999
Zone=11:05_52XSERVICE
999
Zone=12:05_CORE
999
Zone=13:05_53XSERVICE
999
Zone=14:05_54XLIVING
999
Zone=15:05_51XLIVING
999
Zone=16:05_51XSERVICE
999
Zone=17:05_51XMAMAD
999
Zone=18:05_54XMAMAD
999
Zone=19:05_54XSERVICE
999
Zone=20:06_56XLIVING
999
Zone=21:06_56XMAMAD
999
Zone=22:06_57XLIVING
999
Zone=23:06_57XMAMAD
999
Zone=24:06_56XSERVICE
999
Zone=25:06_CORE
999
Zone=26:06_57XSERVICE
999
Zone=27:06_58XLIVING
999
Zone=28:06_55XLIVING
999
Zone=29:06_55XSERVICE
999
Zone=30:06_55XMAMAD
999
Zone=31:06_58XMAMAD
999
Zone=32:06_58XSERVICE
999
Zone=33:07_60XSERVICE
999
Zone=34:07_60XLIVING
999
Zone=35:07_61XLIVING
999
Zone=36:07_CORE1
999
Zone=37:07_64XLIVING
999
Zone=38:07_CORE
999
Zone=39:07_62XLIVING
999
Zone=40:07_61XMAMAD
999
Zone=41:07_63XLIVING
999
Zone=42:07_59XLIVING
999
Zone=43:07_CORE2
999
Zone=44:07_59XSERVICE
999
Zone=45:07_62XMAMAD
999
Zone=46:07_59XMAMAD
999
Zone=47:07_60XMAMAD
999
Zone=48:08_64XMAMAD
999
Zone=49:08_64XSERVICE
999
Zone=50:08_64XSERVICE1
999
Zone=51:08_CORE
999
Zone=52:08_63XSERVICE1
999
Zone=53:08_63XSERVICE
999
Zone=54:08_63XMAMAD
999
Building Shading:GIVAATY 18 - COMPONENT BLOCK 2 - SURFACE 1 (1)
  0
3DFACE
  8
Building Shading
 62
195
 10
        5.88214
 20
       70.83524
 30
       18.05000
 11
        5.34589
 21
       70.38527
 31
       18.05000
 12
        3.06002
 22
       73.10946
 32
       18.05000
 13
        3.59628
 23
       73.55943
 33
       18.05000
999
Building Shading:Mir-GIVAATY 18 - COMPONENT BLOCK 2 - SURFACE 1 (1)
  0
3DFACE
  8
Building Shading
 62
195
 10
        3.59628
 20
       73.55943
 30
       18.05000
 11
        3.06002
 21
       73.10946
 31
       18.05000
 12
        5.34589
 22
       70.38527
 32
       18.05000
 13
        5.88214
 23
       70.83524
 33
       18.05000
999
Building Shading:GIVAATY 18 - COMPONENT BLOCK 2 - SURFACE 2 (2)
  0
3DFACE
  8
Building Shading
 62
195
 10
        3.59628
 20
       73.55943
 30
       18.25000
 11
        3.06002
 21
       73.10946
 31
       18.25000
 12
        5.34589
 22
       70.38527
 32
       18.25000
 13
        5.88214
 23
       70.83524
 33
       18.25000
999
Building Shading:Mir-GIVAATY 18 - COMPONENT BLOCK 2 - SURFACE 2 (2)
  0
3DFACE
  8
Building Shading
 62
195
 10
        5.88214
 20
       70.83524
 30
       18.25000
 11
        5.34589
 21
       70.38527
 31
       18.25000
 12
        3.06002
 22
       73.10946
 32
       18.25000
 13
        3.59628
 23
       73.55943
 33
       18.25000
999
Building Shading:GIVAATY 18 - COMPONENT BLOCK 2 - SURFACE 3 (3)
  0
3DFACE
  8
Building Shading
 62
195
 10
        5.88214
 20
       70.83524
 30
       18.25000
 11
        5.88214
 21
       70.83524
 31
       18.05000
 12
        3.59628
 22
       73.55943
 32
       18.05000
 13
        3.59628
 23
       73.55943
 33
       18.25000
999
Building Shading:Mir-GIVAATY 18 - COMPONENT BLOCK 2 - SURFACE 3 (3)
  0
3DFACE
  8
Building Shading
 62
195
 10
        3.59628
 20
       73.55943
 30
       18.25000
 11
        3.59628
 21
       73.55943
 31
       18.05000
 12
        5.88214
 22
       70.83524
 32
       18.05000
 13
        5.88214
 23
       70.83524
 33
       18.25000
999
Building Shading:GIVAATY 18 - COMPONENT BLOCK 2 - SURFACE 4 (4)
  0
3DFACE
  8
Building Shading
 62
195
 10
        5.34589
 20
       70.38527
 30
       18.25000
 11
        5.34589
 21
       70.38527
 31
       18.05000
 12
        5.88214
 22
       70.83524
 32
       18.05000
 13
        5.88214
 23
       70.83524
 33
       18.25000
999
Building Shading:Mir-GIVAATY 18 - COMPONENT BLOCK 2 - SURFACE 4 (4)
  0
3DFACE
  8
Building Shading
 62
195
 10
        5.88214
 20
       70.83524
 30
       18.25000
 11
        5.88214
 21
       70.83524
 31
       18.05000
 12
        5.34589
 22
       70.38527
 32
       18.05000
 13
        5.34589
 23
       70.38527
 33
       18.25000
999
Building Shading:GIVAATY 18 - COMPONENT BLOCK 2 - SURFACE 5 (5)
  0
3DFACE
  8
Building Shading
 62
195
 10
        3.06002
 20
       73.10946
 30
       18.25000
 11
        3.06002
 21
       73.10946
 31
       18.05000
 12
        5.34589
 22
       70.38527
 32
       18.05000
 13
        5.34589
 23
       70.38527
 33
       18.25000
999
Building Shading:Mir-GIVAATY 18 - COMPONENT BLOCK 2 - SURFACE 5 (5)
  0
3DFACE
  8
Building Shading
 62
195
 10
        5.34589
 20
       70.38527
 30
       18.25000
 11
        5.34589
 21
       70.38527
 31
       18.05000
 12
        3.06002
 22
       73.10946
 32
       18.05000
 13
        3.06002
 23
       73.10946
 33
       18.25000
999
Building Shading:GIVAATY 18 - COMPONENT BLOCK 2 - SURFACE 6 (6)
  0
3DFACE
  8
Building Shading
 62
195
 10
        3.59628
 20
       73.55943
 30
       18.25000
 11
        3.59628
 21
       73.55943
 31
       18.05000
 12
        3.06002
 22
       73.10946
 32
       18.05000
 13
        3.06002
 23
       73.10946
 33
       18.25000
999
Building Shading:Mir-GIVAATY 18 - COMPONENT BLOCK 2 - SURFACE 6 (6)
  0
3DFACE
  8
Building Shading
 62
195
 10
        3.06002
 20
       73.10946
 30
       18.25000
 11
        3.06002
 21
       73.10946
 31
       18.05000
 12
        3.59628
 22
       73.55943
 32
       18.05000
 13
        3.59628
 23
       73.55943
 33
       18.25000
999
Building Shading:GIVAATY 18 - COMPONENT BLOCK 6 - SURFACE 1 (7)
  0
3DFACE
  8
Building Shading
 62
195
 10
       22.58817
 20
       85.01210
 30
       18.05000
 11
       22.03152
 21
       84.54502
 31
       18.05000
 12
       19.82387
 22
       87.17600
 32
       18.05000
 13
       20.38052
 23
       87.64308
 33
       18.05000
999
Building Shading:Mir-GIVAATY 18 - COMPONENT BLOCK 6 - SURFACE 1 (7)
  0
3DFACE
  8
Building Shading
 62
195
 10
       20.38052
 20
       87.64308
 30
       18.05000
 11
       19.82387
 21
       87.17600
 31
       18.05000
 12
       22.03152
 22
       84.54502
 32
       18.05000
 13
       22.58817
 23
       85.01210
 33
       18.05000
999
Building Shading:GIVAATY 18 - COMPONENT BLOCK 6 - SURFACE 2 (8)
  0
3DFACE
  8
Building Shading
 62
195
 10
       20.38052
 20
       87.64308
 30
       18.25000
 11
       19.82387
 21
       87.17600
 31
       18.25000
 12
       22.03152
 22
       84.54502
 32
       18.25000
 13
       22.58817
 23
       85.01210
 33
       18.25000
999
Building Shading:Mir-GIVAATY 18 - COMPONENT BLOCK 6 - SURFACE 2 (8)
  0
3DFACE
  8
Building Shading
 62
195
 10
       22.58817
 20
       85.01210
 30
       18.25000
 11
       22.03152
 21
       84.54502
 31
       18.25000
 12
       19.82387
 22
       87.17600
 32
       18.25000
 13
       20.38052
 23
       87.64308
 33
       18.25000
999
Building Shading:GIVAATY 18 - COMPONENT BLOCK 6 - SURFACE 3 (9)
  0
3DFACE
  8
Building Shading
 62
195
 10
       19.82387
 20
       87.17600
 30
       18.25000
 11
       19.82387
 21
       87.17600
 31
       18.05000
 12
       22.03152
 22
       84.54502
 32
       18.05000
 13
       22.03152
 23
       84.54502
 33
       18.25000
999
Building Shading:Mir-GIVAATY 18 - COMPONENT BLOCK 6 - SURFACE 3 (9)
  0
3DFACE
  8
Building Shading
 62
195
 10
       22.03152
 20
       84.54502
 30
       18.25000
 11
       22.03152
 21
       84.54502
 31
       18.05000
 12
       19.82387
 22
       87.17600
 32
       18.05000
 13
       19.82387
 23
       87.17600
 33
       18.25000
999
Building Shading:GIVAATY 18 - COMPONENT BLOCK 6 - SURFACE 4 (10)
  0
3DFACE
  8
Building Shading
 62
195
 10
       20.38052
 20
       87.64308
 30
       18.25000
 11
       20.38052
 21
       87.64308
 31
       18.05000
 12
       19.82387
 22
       87.17600
 32
       18.05000
 13
       19.82387
 23
       87.17600
 33
       18.25000
999
Building Shading:Mir-GIVAATY 18 - COMPONENT BLOCK 6 - SURFACE 4 (10)
  0
3DFACE
  8
Building Shading
 62
195
 10
       19.82387
 20
       87.17600
 30
       18.25000
 11
       19.82387
 21
       87.17600
 31
       18.05000
 12
       20.38052
 22
       87.64308
 32
       18.05000
 13
       20.38052
 23
       87.64308
 33
       18.25000
999
Building Shading:GIVAATY 18 - COMPONENT BLOCK 6 - SURFACE 5 (11)
  0
3DFACE
  8
Building Shading
 62
195
 10
       22.58817
 20
       85.01210
 30
       18.25000
 11
       22.58817
 21
       85.01210
 31
       18.05000
 12
       20.38052
 22
       87.64308
 32
       18.05000
 13
       20.38052
 23
       87.64308
 33
       18.25000
999
Building Shading:Mir-GIVAATY 18 - COMPONENT BLOCK 6 - SURFACE 5 (11)
  0
3DFACE
  8
Building Shading
 62
195
 10
       20.38052
 20
       87.64308
 30
       18.25000
 11
       20.38052
 21
       87.64308
 31
       18.05000
 12
       22.58817
 22
       85.01210
 32
       18.05000
 13
       22.58817
 23
       85.01210
 33
       18.25000
999
Building Shading:GIVAATY 18 - COMPONENT BLOCK 6 - SURFACE 6 (12)
  0
3DFACE
  8
Building Shading
 62
195
 10
       22.03152
 20
       84.54502
 30
       18.25000
 11
       22.03152
 21
       84.54502
 31
       18.05000
 12
       22.58817
 22
       85.01210
 32
       18.05000
 13
       22.58817
 23
       85.01210
 33
       18.25000
999
Building Shading:Mir-GIVAATY 18 - COMPONENT BLOCK 6 - SURFACE 6 (12)
  0
3DFACE
  8
Building Shading
 62
195
 10
       22.58817
 20
       85.01210
 30
       18.25000
 11
       22.58817
 21
       85.01210
 31
       18.05000
 12
       22.03152
 22
       84.54502
 32
       18.05000
 13
       22.03152
 23
       84.54502
 33
       18.25000
999
Building Shading:GIVAATY 18 - COMPONENT BLOCK 13 - SURFACE 1 (13)
  0
3DFACE
  8
Building Shading
 62
195
 10
       21.52020
 20
       76.02283
 30
       21.20000
 11
       14.16130
 21
       69.84798
 31
       21.20000
 12
       13.00555
 22
       71.22535
 32
       21.20000
 13
       20.36445
 23
       77.40020
 33
       21.20000
999
Building Shading:Mir-GIVAATY 18 - COMPONENT BLOCK 13 - SURFACE 1 (13)
  0
3DFACE
  8
Building Shading
 62
195
 10
       20.36445
 20
       77.40020
 30
       21.20000
 11
       13.00555
 21
       71.22535
 31
       21.20000
 12
       14.16130
 22
       69.84798
 32
       21.20000
 13
       21.52020
 23
       76.02283
 33
       21.20000
999
Building Shading:GIVAATY 18 - COMPONENT BLOCK 13 - SURFACE 2 (14)
  0
3DFACE
  8
Building Shading
 62
195
 10
       24.47798
 20
       80.85186
 30
       21.20000
 11
        9.01640
 21
       67.87805
 31
       21.20000
 12
        8.37480
 22
       68.64267
 32
       21.20000
 13
       23.83519
 23
       81.61790
 33
       21.20000
999
Building Shading:Mir-GIVAATY 18 - COMPONENT BLOCK 13 - SURFACE 2 (14)
  0
3DFACE
  8
Building Shading
 62
195
 10
       23.83519
 20
       81.61790
 30
       21.20000
 11
        8.37480
 21
       68.64267
 31
       21.20000
 12
        9.01640
 22
       67.87805
 32
       21.20000
 13
       24.47798
 23
       80.85186
 33
       21.20000
999
Building Shading:GIVAATY 18 - COMPONENT BLOCK 13 - SURFACE 3 (15)
  0
3DFACE
  8
Building Shading
 62
195
 10
       20.36445
 20
       77.40020
 30
       21.40000
 11
       13.00555
 21
       71.22535
 31
       21.40000
 12
       14.16130
 22
       69.84798
 32
       21.40000
 13
       21.52020
 23
       76.02283
 33
       21.40000
999
Building Shading:Mir-GIVAATY 18 - COMPONENT BLOCK 13 - SURFACE 3 (15)
  0
3DFACE
  8
Building Shading
 62
195
 10
       21.52020
 20
       76.02283
 30
       21.40000
 11
       14.16130
 21
       69.84798
 31
       21.40000
 12
       13.00555
 22
       71.22535
 32
       21.40000
 13
       20.36445
 23
       77.40020
 33
       21.40000
999
Building Shading:GIVAATY 18 - COMPONENT BLOCK 13 - SURFACE 4 (16)
  0
3DFACE
  8
Building Shading
 62
195
 10
       23.83519
 20
       81.61790
 30
       21.40000
 11
        8.37480
 21
       68.64267
 31
       21.40000
 12
        9.01640
 22
       67.87805
 32
       21.40000
 13
       24.47798
 23
       80.85186
 33
       21.40000
999
Building Shading:Mir-GIVAATY 18 - COMPONENT BLOCK 13 - SURFACE 4 (16)
  0
3DFACE
  8
Building Shading
 62
195
 10
       24.47798
 20
       80.85186
 30
       21.40000
 11
        9.01640
 21
       67.87805
 31
       21.40000
 12
        8.37480
 22
       68.64267
 32
       21.40000
 13
       23.83519
 23
       81.61790
 33
       21.40000
999
Building Shading:GIVAATY 18 - COMPONENT BLOCK 13 - SURFACE 5 (17)
  0
3DFACE
  8
Building Shading
 62
195
 10
        8.37480
 20
       68.64267
 30
       21.40000
 11
        8.37480
 21
       68.64267
 31
       21.20000
 12
        9.01640
 22
       67.87805
 32
       21.20000
 13
        9.01640
 23
       67.87805
 33
       21.40000
999
Building Shading:Mir-GIVAATY 18 - COMPONENT BLOCK 13 - SURFACE 5 (17)
  0
3DFACE
  8
Building Shading
 62
195
 10
        9.01640
 20
       67.87805
 30
       21.40000
 11
        9.01640
 21
       67.87805
 31
       21.20000
 12
        8.37480
 22
       68.64267
 32
       21.20000
 13
        8.37480
 23
       68.64267
 33
       21.40000
999
Building Shading:GIVAATY 18 - COMPONENT BLOCK 13 - SURFACE 6 (18)
  0
3DFACE
  8
Building Shading
 62
195
 10
        9.01640
 20
       67.87805
 30
       21.40000
 11
        9.01640
 21
       67.87805
 31
       21.20000
 12
       13.00555
 22
       71.22535
 32
       21.20000
 13
       13.00555
 23
       71.22535
 33
       21.40000
999
Building Shading:Mir-GIVAATY 18 - COMPONENT BLOCK 13 - SURFACE 6 (18)
  0
3DFACE
  8
Building Shading
 62
195
 10
       13.00555
 20
       71.22535
 30
       21.40000
 11
       13.00555
 21
       71.22535
 31
       21.20000
 12
        9.01640
 22
       67.87805
 32
       21.20000
 13
        9.01640
 23
       67.87805
 33
       21.40000
999
Building Shading:GIVAATY 18 - COMPONENT BLOCK 13 - SURFACE 7 (19)
  0
3DFACE
  8
Building Shading
 62
195
 10
       13.00555
 20
       71.22535
 30
       21.40000
 11
       13.00555
 21
       71.22535
 31
       21.20000
 12
       14.16130
 22
       69.84798
 32
       21.20000
 13
       14.16130
 23
       69.84798
 33
       21.40000
999
Building Shading:Mir-GIVAATY 18 - COMPONENT BLOCK 13 - SURFACE 7 (19)
  0
3DFACE
  8
Building Shading
 62
195
 10
       14.16130
 20
       69.84798
 30
       21.40000
 11
       14.16130
 21
       69.84798
 31
       21.20000
 12
       13.00555
 22
       71.22535
 32
       21.20000
 13
       13.00555
 23
       71.22535
 33
       21.40000
999
Building Shading:GIVAATY 18 - COMPONENT BLOCK 13 - SURFACE 8 (20)
  0
3DFACE
  8
Building Shading
 62
195
 10
       14.16130
 20
       69.84798
 30
       21.40000
 11
       14.16130
 21
       69.84798
 31
       21.20000
 12
       21.52020
 22
       76.02283
 32
       21.20000
 13
       21.52020
 23
       76.02283
 33
       21.40000
999
Building Shading:Mir-GIVAATY 18 - COMPONENT BLOCK 13 - SURFACE 8 (20)
  0
3DFACE
  8
Building Shading
 62
195
 10
       21.52020
 20
       76.02283
 30
       21.40000
 11
       21.52020
 21
       76.02283
 31
       21.20000
 12
       14.16130
 22
       69.84798
 32
       21.20000
 13
       14.16130
 23
       69.84798
 33
       21.40000
999
Building Shading:GIVAATY 18 - COMPONENT BLOCK 13 - SURFACE 9 (21)
  0
3DFACE
  8
Building Shading
 62
195
 10
       21.52020
 20
       76.02283
 30
       21.40000
 11
       21.52020
 21
       76.02283
 31
       21.20000
 12
       20.36445
 22
       77.40020
 32
       21.20000
 13
       20.36445
 23
       77.40020
 33
       21.40000
999
Building Shading:Mir-GIVAATY 18 - COMPONENT BLOCK 13 - SURFACE 9 (21)
  0
3DFACE
  8
Building Shading
 62
195
 10
       20.36445
 20
       77.40020
 30
       21.40000
 11
       20.36445
 21
       77.40020
 31
       21.20000
 12
       21.52020
 22
       76.02283
 32
       21.20000
 13
       21.52020
 23
       76.02283
 33
       21.40000
999
Building Shading:GIVAATY 18 - COMPONENT BLOCK 13 - SURFACE 10 (22)
  0
3DFACE
  8
Building Shading
 62
195
 10
       20.36445
 20
       77.40020
 30
       21.40000
 11
       20.36445
 21
       77.40020
 31
       21.20000
 12
       24.47798
 22
       80.85186
 32
       21.20000
 13
       24.47798
 23
       80.85186
 33
       21.40000
999
Building Shading:Mir-GIVAATY 18 - COMPONENT BLOCK 13 - SURFACE 10 (22)
  0
3DFACE
  8
Building Shading
 62
195
 10
       24.47798
 20
       80.85186
 30
       21.40000
 11
       24.47798
 21
       80.85186
 31
       21.20000
 12
       20.36445
 22
       77.40020
 32
       21.20000
 13
       20.36445
 23
       77.40020
 33
       21.40000
999
Building Shading:GIVAATY 18 - COMPONENT BLOCK 13 - SURFACE 11 (23)
  0
3DFACE
  8
Building Shading
 62
195
 10
       24.47798
 20
       80.85186
 30
       21.40000
 11
       24.47798
 21
       80.85186
 31
       21.20000
 12
       23.83519
 22
       81.61790
 32
       21.20000
 13
       23.83519
 23
       81.61790
 33
       21.40000
999
Building Shading:Mir-GIVAATY 18 - COMPONENT BLOCK 13 - SURFACE 11 (23)
  0
3DFACE
  8
Building Shading
 62
195
 10
       23.83519
 20
       81.61790
 30
       21.40000
 11
       23.83519
 21
       81.61790
 31
       21.20000
 12
       24.47798
 22
       80.85186
 32
       21.20000
 13
       24.47798
 23
       80.85186
 33
       21.40000
999
Building Shading:GIVAATY 18 - COMPONENT BLOCK 13 - SURFACE 12 (24)
  0
3DFACE
  8
Building Shading
 62
195
 10
       23.83519
 20
       81.61790
 30
       21.40000
 11
       23.83519
 21
       81.61790
 31
       21.20000
 12
        8.37480
 22
       68.64267
 32
       21.20000
 13
        8.37480
 23
       68.64267
 33
       21.40000
999
Building Shading:Mir-GIVAATY 18 - COMPONENT BLOCK 13 - SURFACE 12 (24)
  0
3DFACE
  8
Building Shading
 62
195
 10
        8.37480
 20
       68.64267
 30
       21.40000
 11
        8.37480
 21
       68.64267
 31
       21.20000
 12
       23.83519
 22
       81.61790
 32
       21.20000
 13
       23.83519
 23
       81.61790
 33
       21.40000
999
Building Shading:GIVAATY 18 - COMPONENT BLOCK 14 - SURFACE 1 (25)
  0
3DFACE
  8
Building Shading
 62
195
 10
        5.88214
 20
       70.83524
 30
       21.20000
 11
        5.34589
 21
       70.38527
 31
       21.20000
 12
        3.06002
 22
       73.10946
 32
       21.20000
 13
        3.59628
 23
       73.55943
 33
       21.20000
999
Building Shading:Mir-GIVAATY 18 - COMPONENT BLOCK 14 - SURFACE 1 (25)
  0
3DFACE
  8
Building Shading
 62
195
 10
        3.59628
 20
       73.55943
 30
       21.20000
 11
        3.06002
 21
       73.10946
 31
       21.20000
 12
        5.34589
 22
       70.38527
 32
       21.20000
 13
        5.88214
 23
       70.83524
 33
       21.20000
999
Building Shading:GIVAATY 18 - COMPONENT BLOCK 14 - SURFACE 2 (26)
  0
3DFACE
  8
Building Shading
 62
195
 10
        3.59628
 20
       73.55943
 30
       21.40000
 11
        3.06002
 21
       73.10946
 31
       21.40000
 12
        5.34589
 22
       70.38527
 32
       21.40000
 13
        5.88214
 23
       70.83524
 33
       21.40000
999
Building Shading:Mir-GIVAATY 18 - COMPONENT BLOCK 14 - SURFACE 2 (26)
  0
3DFACE
  8
Building Shading
 62
195
 10
        5.88214
 20
       70.83524
 30
       21.40000
 11
        5.34589
 21
       70.38527
 31
       21.40000
 12
        3.06002
 22
       73.10946
 32
       21.40000
 13
        3.59628
 23
       73.55943
 33
       21.40000
999
Building Shading:GIVAATY 18 - COMPONENT BLOCK 14 - SURFACE 3 (27)
  0
3DFACE
  8
Building Shading
 62
195
 10
        5.88214
 20
       70.83524
 30
       21.40000
 11
        5.88214
 21
       70.83524
 31
       21.20000
 12
        3.59628
 22
       73.55943
 32
       21.20000
 13
        3.59628
 23
       73.55943
 33
       21.40000
999
Building Shading:Mir-GIVAATY 18 - COMPONENT BLOCK 14 - SURFACE 3 (27)
  0
3DFACE
  8
Building Shading
 62
195
 10
        3.59628
 20
       73.55943
 30
       21.40000
 11
        3.59628
 21
       73.55943
 31
       21.20000
 12
        5.88214
 22
       70.83524
 32
       21.20000
 13
        5.88214
 23
       70.83524
 33
       21.40000
999
Building Shading:GIVAATY 18 - COMPONENT BLOCK 14 - SURFACE 4 (28)
  0
3DFACE
  8
Building Shading
 62
195
 10
        5.34589
 20
       70.38527
 30
       21.40000
 11
        5.34589
 21
       70.38527
 31
       21.20000
 12
        5.88214
 22
       70.83524
 32
       21.20000
 13
        5.88214
 23
       70.83524
 33
       21.40000
999
Building Shading:Mir-GIVAATY 18 - COMPONENT BLOCK 14 - SURFACE 4 (28)
  0
3DFACE
  8
Building Shading
 62
195
 10
        5.88214
 20
       70.83524
 30
       21.40000
 11
        5.88214
 21
       70.83524
 31
       21.20000
 12
        5.34589
 22
       70.38527
 32
       21.20000
 13
        5.34589
 23
       70.38527
 33
       21.40000
999
Building Shading:GIVAATY 18 - COMPONENT BLOCK 14 - SURFACE 5 (29)
  0
3DFACE
  8
Building Shading
 62
195
 10
        3.06002
 20
       73.10946
 30
       21.40000
 11
        3.06002
 21
       73.10946
 31
       21.20000
 12
        5.34589
 22
       70.38527
 32
       21.20000
 13
        5.34589
 23
       70.38527
 33
       21.40000
999
Building Shading:Mir-GIVAATY 18 - COMPONENT BLOCK 14 - SURFACE 5 (29)
  0
3DFACE
  8
Building Shading
 62
195
 10
        5.34589
 20
       70.38527
 30
       21.40000
 11
        5.34589
 21
       70.38527
 31
       21.20000
 12
        3.06002
 22
       73.10946
 32
       21.20000
 13
        3.06002
 23
       73.10946
 33
       21.40000
999
Building Shading:GIVAATY 18 - COMPONENT BLOCK 14 - SURFACE 6 (30)
  0
3DFACE
  8
Building Shading
 62
195
 10
        3.59628
 20
       73.55943
 30
       21.40000
 11
        3.59628
 21
       73.55943
 31
       21.20000
 12
        3.06002
 22
       73.10946
 32
       21.20000
 13
        3.06002
 23
       73.10946
 33
       21.40000
999
Building Shading:Mir-GIVAATY 18 - COMPONENT BLOCK 14 - SURFACE 6 (30)
  0
3DFACE
  8
Building Shading
 62
195
 10
        3.06002
 20
       73.10946
 30
       21.40000
 11
        3.06002
 21
       73.10946
 31
       21.20000
 12
        3.59628
 22
       73.55943
 32
       21.20000
 13
        3.59628
 23
       73.55943
 33
       21.40000
999
Building Shading:GIVAATY 18 - COMPONENT BLOCK 15 - SURFACE 1 (31)
  0
3DFACE
  8
Building Shading
 62
195
 10
        3.24013
 20
       76.00631
 30
       21.20000
 11
        2.34002
 21
       75.25103
 31
       21.20000
 12
        1.54669
 22
       76.19649
 32
       21.20000
 13
        2.44680
 23
       76.95176
 33
       21.20000
999
Building Shading:Mir-GIVAATY 18 - COMPONENT BLOCK 15 - SURFACE 1 (31)
  0
3DFACE
  8
Building Shading
 62
195
 10
        2.44680
 20
       76.95176
 30
       21.20000
 11
        1.54669
 21
       76.19649
 31
       21.20000
 12
        2.34002
 22
       75.25103
 32
       21.20000
 13
        3.24013
 23
       76.00631
 33
       21.20000
999
Building Shading:GIVAATY 18 - COMPONENT BLOCK 15 - SURFACE 2 (32)
  0
3DFACE
  8
Building Shading
 62
195
 10
        2.44680
 20
       76.95176
 30
       21.20000
 11
        0.60354
 21
       75.40509
 31
       21.20000
 12
       -1.60204
 22
       78.03360
 32
       21.20000
 13
        0.24122
 23
       79.58027
 33
       21.20000
999
Building Shading:Mir-GIVAATY 18 - COMPONENT BLOCK 15 - SURFACE 2 (32)
  0
3DFACE
  8
Building Shading
 62
195
 10
        0.24122
 20
       79.58027
 30
       21.20000
 11
       -1.60204
 21
       78.03360
 31
       21.20000
 12
        0.60354
 22
       75.40509
 32
       21.20000
 13
        2.44680
 23
       76.95176
 33
       21.20000
999
Building Shading:GIVAATY 18 - COMPONENT BLOCK 15 - SURFACE 3 (33)
  0
3DFACE
  8
Building Shading
 62
195
 10
       -0.65889
 20
       78.82500
 30
       21.40000
 11
       -1.60204
 21
       78.03360
 31
       21.40000
 12
        0.60354
 22
       75.40509
 32
       21.40000
 13
        1.54669
 23
       76.19649
 33
       21.40000
999
Building Shading:Mir-GIVAATY 18 - COMPONENT BLOCK 15 - SURFACE 3 (33)
  0
3DFACE
  8
Building Shading
 62
195
 10
        1.54669
 20
       76.19649
 30
       21.40000
 11
        0.60354
 21
       75.40509
 31
       21.40000
 12
       -1.60204
 22
       78.03360
 32
       21.40000
 13
       -0.65889
 23
       78.82500
 33
       21.40000
999
Building Shading:GIVAATY 18 - COMPONENT BLOCK 15 - SURFACE 4 (34)
  0
3DFACE
  8
Building Shading
 62
195
 10
        0.24122
 20
       79.58027
 30
       21.40000
 11
       -0.65889
 21
       78.82500
 31
       21.40000
 12
        2.34002
 22
       75.25103
 32
       21.40000
 13
        3.24013
 23
       76.00631
 33
       21.40000
999
Building Shading:Mir-GIVAATY 18 - COMPONENT BLOCK 15 - SURFACE 4 (34)
  0
3DFACE
  8
Building Shading
 62
195
 10
        3.24013
 20
       76.00631
 30
       21.40000
 11
        2.34002
 21
       75.25103
 31
       21.40000
 12
       -0.65889
 22
       78.82500
 32
       21.40000
 13
        0.24122
 23
       79.58027
 33
       21.40000
999
Building Shading:GIVAATY 18 - COMPONENT BLOCK 15 - SURFACE 5 (35)
  0
3DFACE
  8
Building Shading
 62
195
 10
        0.24122
 20
       79.58027
 30
       21.40000
 11
        0.24122
 21
       79.58027
 31
       21.20000
 12
       -1.60204
 22
       78.03360
 32
       21.20000
 13
       -1.60204
 23
       78.03360
 33
       21.40000
999
Building Shading:Mir-GIVAATY 18 - COMPONENT BLOCK 15 - SURFACE 5 (35)
  0
3DFACE
  8
Building Shading
 62
195
 10
       -1.60204
 20
       78.03360
 30
       21.40000
 11
       -1.60204
 21
       78.03360
 31
       21.20000
 12
        0.24122
 22
       79.58027
 32
       21.20000
 13
        0.24122
 23
       79.58027
 33
       21.40000
999
Building Shading:GIVAATY 18 - COMPONENT BLOCK 15 - SURFACE 6 (36)
  0
3DFACE
  8
Building Shading
 62
195
 10
       -1.60204
 20
       78.03360
 30
       21.40000
 11
       -1.60204
 21
       78.03360
 31
       21.20000
 12
        0.60354
 22
       75.40509
 32
       21.20000
 13
        0.60354
 23
       75.40509
 33
       21.40000
999
Building Shading:Mir-GIVAATY 18 - COMPONENT BLOCK 15 - SURFACE 6 (36)
  0
3DFACE
  8
Building Shading
 62
195
 10
        0.60354
 20
       75.40509
 30
       21.40000
 11
        0.60354
 21
       75.40509
 31
       21.20000
 12
       -1.60204
 22
       78.03360
 32
       21.20000
 13
       -1.60204
 23
       78.03360
 33
       21.40000
999
Building Shading:GIVAATY 18 - COMPONENT BLOCK 15 - SURFACE 7 (37)
  0
3DFACE
  8
Building Shading
 62
195
 10
        0.60354
 20
       75.40509
 30
       21.40000
 11
        0.60354
 21
       75.40509
 31
       21.20000
 12
        1.54669
 22
       76.19649
 32
       21.20000
 13
        1.54669
 23
       76.19649
 33
       21.40000
999
Building Shading:Mir-GIVAATY 18 - COMPONENT BLOCK 15 - SURFACE 7 (37)
  0
3DFACE
  8
Building Shading
 62
195
 10
        1.54669
 20
       76.19649
 30
       21.40000
 11
        1.54669
 21
       76.19649
 31
       21.20000
 12
        0.60354
 22
       75.40509
 32
       21.20000
 13
        0.60354
 23
       75.40509
 33
       21.40000
999
Building Shading:GIVAATY 18 - COMPONENT BLOCK 15 - SURFACE 8 (38)
  0
3DFACE
  8
Building Shading
 62
195
 10
        1.54669
 20
       76.19649
 30
       21.40000
 11
        1.54669
 21
       76.19649
 31
       21.20000
 12
        2.34002
 22
       75.25103
 32
       21.20000
 13
        2.34002
 23
       75.25103
 33
       21.40000
999
Building Shading:Mir-GIVAATY 18 - COMPONENT BLOCK 15 - SURFACE 8 (38)
  0
3DFACE
  8
Building Shading
 62
195
 10
        2.34002
 20
       75.25103
 30
       21.40000
 11
        2.34002
 21
       75.25103
 31
       21.20000
 12
        1.54669
 22
       76.19649
 32
       21.20000
 13
        1.54669
 23
       76.19649
 33
       21.40000
999
Building Shading:GIVAATY 18 - COMPONENT BLOCK 15 - SURFACE 9 (39)
  0
3DFACE
  8
Building Shading
 62
195
 10
        2.34002
 20
       75.25103
 30
       21.40000
 11
        2.34002
 21
       75.25103
 31
       21.20000
 12
        3.24013
 22
       76.00631
 32
       21.20000
 13
        3.24013
 23
       76.00631
 33
       21.40000
999
Building Shading:Mir-GIVAATY 18 - COMPONENT BLOCK 15 - SURFACE 9 (39)
  0
3DFACE
  8
Building Shading
 62
195
 10
        3.24013
 20
       76.00631
 30
       21.40000
 11
        3.24013
 21
       76.00631
 31
       21.20000
 12
        2.34002
 22
       75.25103
 32
       21.20000
 13
        2.34002
 23
       75.25103
 33
       21.40000
999
Building Shading:GIVAATY 18 - COMPONENT BLOCK 15 - SURFACE 10 (40)
  0
3DFACE
  8
Building Shading
 62
195
 10
        3.24013
 20
       76.00631
 30
       21.40000
 11
        3.24013
 21
       76.00631
 31
       21.20000
 12
        0.24122
 22
       79.58027
 32
       21.20000
 13
        0.24122
 23
       79.58027
 33
       21.40000
999
Building Shading:Mir-GIVAATY 18 - COMPONENT BLOCK 15 - SURFACE 10 (40)
  0
3DFACE
  8
Building Shading
 62
195
 10
        0.24122
 20
       79.58027
 30
       21.40000
 11
        0.24122
 21
       79.58027
 31
       21.20000
 12
        3.24013
 22
       76.00631
 32
       21.20000
 13
        3.24013
 23
       76.00631
 33
       21.40000
999
Building Shading:GIVAATY 18 - COMPONENT BLOCK 16 - SURFACE 1 (41)
  0
3DFACE
  8
Building Shading
 62
195
 10
        0.75535
 20
       87.02615
 30
       21.20000
 11
       -4.12436
 21
       82.93160
 31
       21.20000
 12
       -4.16501
 22
       82.98005
 32
       21.20000
 13
        0.71469
 23
       87.07461
 33
       21.20000
999
Building Shading:Mir-GIVAATY 18 - COMPONENT BLOCK 16 - SURFACE 1 (41)
  0
3DFACE
  8
Building Shading
 62
195
 10
        0.71469
 20
       87.07461
 30
       21.20000
 11
       -4.16501
 21
       82.98005
 31
       21.20000
 12
       -4.12436
 22
       82.93160
 32
       21.20000
 13
        0.75535
 23
       87.02615
 33
       21.20000
999
Building Shading:GIVAATY 18 - COMPONENT BLOCK 16 - SURFACE 2 (42)
  0
3DFACE
  8
Building Shading
 62
195
 10
        7.14194
 20
       92.38514
 30
       21.20000
 11
        0.75535
 21
       87.02615
 31
       21.20000
 12
        0.66648
 22
       87.13206
 32
       21.20000
 13
        7.05307
 23
       92.49104
 33
       21.20000
999
Building Shading:Mir-GIVAATY 18 - COMPONENT BLOCK 16 - SURFACE 2 (42)
  0
3DFACE
  8
Building Shading
 62
195
 10
        7.05307
 20
       92.49104
 30
       21.20000
 11
        0.66648
 21
       87.13206
 31
       21.20000
 12
        0.75535
 22
       87.02615
 32
       21.20000
 13
        7.14194
 23
       92.38514
 33
       21.20000
999
Building Shading:GIVAATY 18 - COMPONENT BLOCK 16 - SURFACE 3 (43)
  0
3DFACE
  8
Building Shading
 62
195
 10
       12.30146
 20
       95.94639
 30
       21.20000
 11
       -3.74614
 21
       82.48085
 31
       21.20000
 12
       -4.12436
 22
       82.93160
 32
       21.20000
 13
       11.92325
 23
       96.39713
 33
       21.20000
999
Building Shading:Mir-GIVAATY 18 - COMPONENT BLOCK 16 - SURFACE 3 (43)
  0
3DFACE
  8
Building Shading
 62
195
 10
       11.92325
 20
       96.39713
 30
       21.20000
 11
       -4.12436
 21
       82.93160
 31
       21.20000
 12
       -3.74614
 22
       82.48085
 32
       21.20000
 13
       12.30146
 23
       95.94639
 33
       21.20000
999
Building Shading:GIVAATY 18 - COMPONENT BLOCK 16 - SURFACE 4 (44)
  0
3DFACE
  8
Building Shading
 62
195
 10
       11.92325
 20
       96.39713
 30
       21.40000
 11
        7.14194
 21
       92.38514
 31
       21.40000
 12
        7.52015
 22
       91.93440
 32
       21.40000
 13
       12.30146
 23
       95.94639
 33
       21.40000
999
Building Shading:Mir-GIVAATY 18 - COMPONENT BLOCK 16 - SURFACE 4 (44)
  0
3DFACE
  8
Building Shading
 62
195
 10
       12.30146
 20
       95.94639
 30
       21.40000
 11
        7.52015
 21
       91.93440
 31
       21.40000
 12
        7.14194
 22
       92.38514
 32
       21.40000
 13
       11.92325
 23
       96.39713
 33
       21.40000
999
Building Shading:GIVAATY 18 - COMPONENT BLOCK 16 - SURFACE 5 (45)
  0
3DFACE
  8
Building Shading
 62
195
 10
        7.05307
 20
       92.49104
 30
       21.40000
 11
        0.66648
 21
       87.13206
 31
       21.40000
 12
        0.71469
 22
       87.07461
 32
       21.40000
 13
        7.10128
 23
       92.43359
 33
       21.40000
999
Building Shading:Mir-GIVAATY 18 - COMPONENT BLOCK 16 - SURFACE 5 (45)
  0
3DFACE
  8
Building Shading
 62
195
 10
        7.10128
 20
       92.43359
 30
       21.40000
 11
        0.71469
 21
       87.07461
 31
       21.40000
 12
        0.66648
 22
       87.13206
 32
       21.40000
 13
        7.05307
 23
       92.49104
 33
       21.40000
999
Building Shading:GIVAATY 18 - COMPONENT BLOCK 16 - SURFACE 6 (46)
  0
3DFACE
  8
Building Shading
 62
195
 10
        7.10128
 20
       92.43359
 30
       21.40000
 11
       -4.16501
 21
       82.98005
 31
       21.40000
 12
       -3.74614
 22
       82.48085
 32
       21.40000
 13
        7.52015
 23
       91.93440
 33
       21.40000
999
Building Shading:Mir-GIVAATY 18 - COMPONENT BLOCK 16 - SURFACE 6 (46)
  0
3DFACE
  8
Building Shading
 62
195
 10
        7.52015
 20
       91.93440
 30
       21.40000
 11
       -3.74614
 21
       82.48085
 31
       21.40000
 12
       -4.16501
 22
       82.98005
 32
       21.40000
 13
        7.10128
 23
       92.43359
 33
       21.40000
999
Building Shading:GIVAATY 18 - COMPONENT BLOCK 16 - SURFACE 7 (47)
  0
3DFACE
  8
Building Shading
 62
195
 10
       -4.16501
 20
       82.98005
 30
       21.40000
 11
       -4.16501
 21
       82.98005
 31
       21.20000
 12
       -3.74614
 22
       82.48085
 32
       21.20000
 13
       -3.74614
 23
       82.48085
 33
       21.40000
999
Building Shading:Mir-GIVAATY 18 - COMPONENT BLOCK 16 - SURFACE 7 (47)
  0
3DFACE
  8
Building Shading
 62
195
 10
       -3.74614
 20
       82.48085
 30
       21.40000
 11
       -3.74614
 21
       82.48085
 31
       21.20000
 12
       -4.16501
 22
       82.98005
 32
       21.20000
 13
       -4.16501
 23
       82.98005
 33
       21.40000
999
Building Shading:GIVAATY 18 - COMPONENT BLOCK 16 - SURFACE 8 (48)
  0
3DFACE
  8
Building Shading
 62
195
 10
       -3.74614
 20
       82.48085
 30
       21.40000
 11
       -3.74614
 21
       82.48085
 31
       21.20000
 12
       12.30146
 22
       95.94639
 32
       21.20000
 13
       12.30146
 23
       95.94639
 33
       21.40000
999
Building Shading:Mir-GIVAATY 18 - COMPONENT BLOCK 16 - SURFACE 8 (48)
  0
3DFACE
  8
Building Shading
 62
195
 10
       12.30146
 20
       95.94639
 30
       21.40000
 11
       12.30146
 21
       95.94639
 31
       21.20000
 12
       -3.74614
 22
       82.48085
 32
       21.20000
 13
       -3.74614
 23
       82.48085
 33
       21.40000
999
Building Shading:GIVAATY 18 - COMPONENT BLOCK 16 - SURFACE 9 (49)
  0
3DFACE
  8
Building Shading
 62
195
 10
       12.30146
 20
       95.94639
 30
       21.40000
 11
       12.30146
 21
       95.94639
 31
       21.20000
 12
       11.92325
 22
       96.39713
 32
       21.20000
 13
       11.92325
 23
       96.39713
 33
       21.40000
999
Building Shading:Mir-GIVAATY 18 - COMPONENT BLOCK 16 - SURFACE 9 (49)
  0
3DFACE
  8
Building Shading
 62
195
 10
       11.92325
 20
       96.39713
 30
       21.40000
 11
       11.92325
 21
       96.39713
 31
       21.20000
 12
       12.30146
 22
       95.94639
 32
       21.20000
 13
       12.30146
 23
       95.94639
 33
       21.40000
999
Building Shading:GIVAATY 18 - COMPONENT BLOCK 16 - SURFACE 10 (50)
  0
3DFACE
  8
Building Shading
 62
195
 10
       11.92325
 20
       96.39713
 30
       21.40000
 11
       11.92325
 21
       96.39713
 31
       21.20000
 12
        7.14194
 22
       92.38514
 32
       21.20000
 13
        7.14194
 23
       92.38514
 33
       21.40000
999
Building Shading:Mir-GIVAATY 18 - COMPONENT BLOCK 16 - SURFACE 10 (50)
  0
3DFACE
  8
Building Shading
 62
195
 10
        7.14194
 20
       92.38514
 30
       21.40000
 11
        7.14194
 21
       92.38514
 31
       21.20000
 12
       11.92325
 22
       96.39713
 32
       21.20000
 13
       11.92325
 23
       96.39713
 33
       21.40000
999
Building Shading:GIVAATY 18 - COMPONENT BLOCK 16 - SURFACE 11 (51)
  0
3DFACE
  8
Building Shading
 62
195
 10
        7.14194
 20
       92.38514
 30
       21.40000
 11
        7.14194
 21
       92.38514
 31
       21.20000
 12
        7.05307
 22
       92.49104
 32
       21.20000
 13
        7.05307
 23
       92.49104
 33
       21.40000
999
Building Shading:Mir-GIVAATY 18 - COMPONENT BLOCK 16 - SURFACE 11 (51)
  0
3DFACE
  8
Building Shading
 62
195
 10
        7.05307
 20
       92.49104
 30
       21.40000
 11
        7.05307
 21
       92.49104
 31
       21.20000
 12
        7.14194
 22
       92.38514
 32
       21.20000
 13
        7.14194
 23
       92.38514
 33
       21.40000
999
Building Shading:GIVAATY 18 - COMPONENT BLOCK 16 - SURFACE 12 (52)
  0
3DFACE
  8
Building Shading
 62
195
 10
        7.05307
 20
       92.49104
 30
       21.40000
 11
        7.05307
 21
       92.49104
 31
       21.20000
 12
        0.66648
 22
       87.13206
 32
       21.20000
 13
        0.66648
 23
       87.13206
 33
       21.40000
999
Building Shading:Mir-GIVAATY 18 - COMPONENT BLOCK 16 - SURFACE 12 (52)
  0
3DFACE
  8
Building Shading
 62
195
 10
        0.66648
 20
       87.13206
 30
       21.40000
 11
        0.66648
 21
       87.13206
 31
       21.20000
 12
        7.05307
 22
       92.49104
 32
       21.20000
 13
        7.05307
 23
       92.49104
 33
       21.40000
999
Building Shading:GIVAATY 18 - COMPONENT BLOCK 16 - SURFACE 13 (53)
  0
3DFACE
  8
Building Shading
 62
195
 10
        0.66648
 20
       87.13206
 30
       21.40000
 11
        0.66648
 21
       87.13206
 31
       21.20000
 12
        0.71469
 22
       87.07461
 32
       21.20000
 13
        0.71469
 23
       87.07461
 33
       21.40000
999
Building Shading:Mir-GIVAATY 18 - COMPONENT BLOCK 16 - SURFACE 13 (53)
  0
3DFACE
  8
Building Shading
 62
195
 10
        0.71469
 20
       87.07461
 30
       21.40000
 11
        0.71469
 21
       87.07461
 31
       21.20000
 12
        0.66648
 22
       87.13206
 32
       21.20000
 13
        0.66648
 23
       87.13206
 33
       21.40000
999
Building Shading:GIVAATY 18 - COMPONENT BLOCK 16 - SURFACE 14 (54)
  0
3DFACE
  8
Building Shading
 62
195
 10
        0.71469
 20
       87.07461
 30
       21.40000
 11
        0.71469
 21
       87.07461
 31
       21.20000
 12
       -4.16501
 22
       82.98005
 32
       21.20000
 13
       -4.16501
 23
       82.98005
 33
       21.40000
999
Building Shading:Mir-GIVAATY 18 - COMPONENT BLOCK 16 - SURFACE 14 (54)
  0
3DFACE
  8
Building Shading
 62
195
 10
       -4.16501
 20
       82.98005
 30
       21.40000
 11
       -4.16501
 21
       82.98005
 31
       21.20000
 12
        0.71469
 22
       87.07461
 32
       21.20000
 13
        0.71469
 23
       87.07461
 33
       21.40000
999
Building Shading:GIVAATY 18 - COMPONENT BLOCK 17 - SURFACE 1 (55)
  0
3DFACE
  8
Building Shading
 62
195
 10
       18.52822
 20
       90.35596
 30
       21.20000
 11
       17.62696
 21
       89.59971
 31
       21.20000
 12
       15.40613
 22
       92.24640
 32
       21.20000
 13
       16.30739
 23
       93.00265
 33
       21.20000
999
Building Shading:Mir-GIVAATY 18 - COMPONENT BLOCK 17 - SURFACE 1 (55)
  0
3DFACE
  8
Building Shading
 62
195
 10
       16.30739
 20
       93.00265
 30
       21.20000
 11
       15.40613
 21
       92.24640
 31
       21.20000
 12
       17.62696
 22
       89.59971
 32
       21.20000
 13
       18.52822
 23
       90.35596
 33
       21.20000
999
Building Shading:GIVAATY 18 - COMPONENT BLOCK 17 - SURFACE 2 (56)
  0
3DFACE
  8
Building Shading
 62
195
 10
       18.37611
 20
       88.70691
 30
       21.20000
 11
       17.47601
 21
       87.95163
 31
       21.20000
 12
       14.50602
 22
       91.49112
 32
       21.20000
 13
       15.40613
 23
       92.24640
 33
       21.20000
999
Building Shading:Mir-GIVAATY 18 - COMPONENT BLOCK 17 - SURFACE 2 (56)
  0
3DFACE
  8
Building Shading
 62
195
 10
       15.40613
 20
       92.24640
 30
       21.20000
 11
       14.50602
 21
       91.49112
 31
       21.20000
 12
       17.47601
 22
       87.95163
 32
       21.20000
 13
       18.37611
 23
       88.70691
 33
       21.20000
999
Building Shading:GIVAATY 18 - COMPONENT BLOCK 17 - SURFACE 3 (57)
  0
3DFACE
  8
Building Shading
 62
195
 10
       17.62696
 20
       89.59971
 30
       21.40000
 11
       16.72686
 21
       88.84444
 31
       21.40000
 12
       17.47601
 22
       87.95163
 32
       21.40000
 13
       18.37611
 23
       88.70691
 33
       21.40000
999
Building Shading:Mir-GIVAATY 18 - COMPONENT BLOCK 17 - SURFACE 3 (57)
  0
3DFACE
  8
Building Shading
 62
195
 10
       18.37611
 20
       88.70691
 30
       21.40000
 11
       17.47601
 21
       87.95163
 31
       21.40000
 12
       16.72686
 22
       88.84444
 32
       21.40000
 13
       17.62696
 23
       89.59971
 33
       21.40000
999
Building Shading:GIVAATY 18 - COMPONENT BLOCK 17 - SURFACE 4 (58)
  0
3DFACE
  8
Building Shading
 62
195
 10
       16.30739
 20
       93.00265
 30
       21.40000
 11
       14.50602
 21
       91.49112
 31
       21.40000
 12
       16.72686
 22
       88.84444
 32
       21.40000
 13
       18.52822
 23
       90.35596
 33
       21.40000
999
Building Shading:Mir-GIVAATY 18 - COMPONENT BLOCK 17 - SURFACE 4 (58)
  0
3DFACE
  8
Building Shading
 62
195
 10
       18.52822
 20
       90.35596
 30
       21.40000
 11
       16.72686
 21
       88.84444
 31
       21.40000
 12
       14.50602
 22
       91.49112
 32
       21.40000
 13
       16.30739
 23
       93.00265
 33
       21.40000
999
Building Shading:GIVAATY 18 - COMPONENT BLOCK 17 - SURFACE 5 (59)
  0
3DFACE
  8
Building Shading
 62
195
 10
       17.47601
 20
       87.95163
 30
       21.40000
 11
       17.47601
 21
       87.95163
 31
       21.20000
 12
       18.37611
 22
       88.70691
 32
       21.20000
 13
       18.37611
 23
       88.70691
 33
       21.40000
999
Building Shading:Mir-GIVAATY 18 - COMPONENT BLOCK 17 - SURFACE 5 (59)
  0
3DFACE
  8
Building Shading
 62
195
 10
       18.37611
 20
       88.70691
 30
       21.40000
 11
       18.37611
 21
       88.70691
 31
       21.20000
 12
       17.47601
 22
       87.95163
 32
       21.20000
 13
       17.47601
 23
       87.95163
 33
       21.40000
999
Building Shading:GIVAATY 18 - COMPONENT BLOCK 17 - SURFACE 6 (60)
  0
3DFACE
  8
Building Shading
 62
195
 10
       14.50602
 20
       91.49112
 30
       21.40000
 11
       14.50602
 21
       91.49112
 31
       21.20000
 12
       17.47601
 22
       87.95163
 32
       21.20000
 13
       17.47601
 23
       87.95163
 33
       21.40000
999
Building Shading:Mir-GIVAATY 18 - COMPONENT BLOCK 17 - SURFACE 6 (60)
  0
3DFACE
  8
Building Shading
 62
195
 10
       17.47601
 20
       87.95163
 30
       21.40000
 11
       17.47601
 21
       87.95163
 31
       21.20000
 12
       14.50602
 22
       91.49112
 32
       21.20000
 13
       14.50602
 23
       91.49112
 33
       21.40000
999
Building Shading:GIVAATY 18 - COMPONENT BLOCK 17 - SURFACE 7 (61)
  0
3DFACE
  8
Building Shading
 62
195
 10
       16.30739
 20
       93.00265
 30
       21.40000
 11
       16.30739
 21
       93.00265
 31
       21.20000
 12
       14.50602
 22
       91.49112
 32
       21.20000
 13
       14.50602
 23
       91.49112
 33
       21.40000
999
Building Shading:Mir-GIVAATY 18 - COMPONENT BLOCK 17 - SURFACE 7 (61)
  0
3DFACE
  8
Building Shading
 62
195
 10
       14.50602
 20
       91.49112
 30
       21.40000
 11
       14.50602
 21
       91.49112
 31
       21.20000
 12
       16.30739
 22
       93.00265
 32
       21.20000
 13
       16.30739
 23
       93.00265
 33
       21.40000
999
Building Shading:GIVAATY 18 - COMPONENT BLOCK 17 - SURFACE 8 (62)
  0
3DFACE
  8
Building Shading
 62
195
 10
       18.52822
 20
       90.35596
 30
       21.40000
 11
       18.52822
 21
       90.35596
 31
       21.20000
 12
       16.30739
 22
       93.00265
 32
       21.20000
 13
       16.30739
 23
       93.00265
 33
       21.40000
999
Building Shading:Mir-GIVAATY 18 - COMPONENT BLOCK 17 - SURFACE 8 (62)
  0
3DFACE
  8
Building Shading
 62
195
 10
       16.30739
 20
       93.00265
 30
       21.40000
 11
       16.30739
 21
       93.00265
 31
       21.20000
 12
       18.52822
 22
       90.35596
 32
       21.20000
 13
       18.52822
 23
       90.35596
 33
       21.40000
999
Building Shading:GIVAATY 18 - COMPONENT BLOCK 17 - SURFACE 9 (63)
  0
3DFACE
  8
Building Shading
 62
195
 10
       17.62696
 20
       89.59971
 30
       21.40000
 11
       17.62696
 21
       89.59971
 31
       21.20000
 12
       18.52822
 22
       90.35596
 32
       21.20000
 13
       18.52822
 23
       90.35596
 33
       21.40000
999
Building Shading:Mir-GIVAATY 18 - COMPONENT BLOCK 17 - SURFACE 9 (63)
  0
3DFACE
  8
Building Shading
 62
195
 10
       18.52822
 20
       90.35596
 30
       21.40000
 11
       18.52822
 21
       90.35596
 31
       21.20000
 12
       17.62696
 22
       89.59971
 32
       21.20000
 13
       17.62696
 23
       89.59971
 33
       21.40000
999
Building Shading:GIVAATY 18 - COMPONENT BLOCK 17 - SURFACE 10 (64)
  0
3DFACE
  8
Building Shading
 62
195
 10
       18.37611
 20
       88.70691
 30
       21.40000
 11
       18.37611
 21
       88.70691
 31
       21.20000
 12
       17.62696
 22
       89.59971
 32
       21.20000
 13
       17.62696
 23
       89.59971
 33
       21.40000
999
Building Shading:Mir-GIVAATY 18 - COMPONENT BLOCK 17 - SURFACE 10 (64)
  0
3DFACE
  8
Building Shading
 62
195
 10
       17.62696
 20
       89.59971
 30
       21.40000
 11
       17.62696
 21
       89.59971
 31
       21.20000
 12
       18.37611
 22
       88.70691
 32
       21.20000
 13
       18.37611
 23
       88.70691
 33
       21.40000
999
Building Shading:GIVAATY 18 - COMPONENT BLOCK 18 - SURFACE 1 (65)
  0
3DFACE
  8
Building Shading
 62
195
 10
       22.58817
 20
       85.01210
 30
       21.20000
 11
       22.03152
 21
       84.54502
 31
       21.20000
 12
       19.82387
 22
       87.17600
 32
       21.20000
 13
       20.38052
 23
       87.64308
 33
       21.20000
999
Building Shading:Mir-GIVAATY 18 - COMPONENT BLOCK 18 - SURFACE 1 (65)
  0
3DFACE
  8
Building Shading
 62
195
 10
       20.38052
 20
       87.64308
 30
       21.20000
 11
       19.82387
 21
       87.17600
 31
       21.20000
 12
       22.03152
 22
       84.54502
 32
       21.20000
 13
       22.58817
 23
       85.01210
 33
       21.20000
999
Building Shading:GIVAATY 18 - COMPONENT BLOCK 18 - SURFACE 2 (66)
  0
3DFACE
  8
Building Shading
 62
195
 10
       20.38052
 20
       87.64308
 30
       21.40000
 11
       19.82387
 21
       87.17600
 31
       21.40000
 12
       22.03152
 22
       84.54502
 32
       21.40000
 13
       22.58817
 23
       85.01210
 33
       21.40000
999
Building Shading:Mir-GIVAATY 18 - COMPONENT BLOCK 18 - SURFACE 2 (66)
  0
3DFACE
  8
Building Shading
 62
195
 10
       22.58817
 20
       85.01210
 30
       21.40000
 11
       22.03152
 21
       84.54502
 31
       21.40000
 12
       19.82387
 22
       87.17600
 32
       21.40000
 13
       20.38052
 23
       87.64308
 33
       21.40000
999
Building Shading:GIVAATY 18 - COMPONENT BLOCK 18 - SURFACE 3 (67)
  0
3DFACE
  8
Building Shading
 62
195
 10
       19.82387
 20
       87.17600
 30
       21.40000
 11
       19.82387
 21
       87.17600
 31
       21.20000
 12
       22.03152
 22
       84.54502
 32
       21.20000
 13
       22.03152
 23
       84.54502
 33
       21.40000
999
Building Shading:Mir-GIVAATY 18 - COMPONENT BLOCK 18 - SURFACE 3 (67)
  0
3DFACE
  8
Building Shading
 62
195
 10
       22.03152
 20
       84.54502
 30
       21.40000
 11
       22.03152
 21
       84.54502
 31
       21.20000
 12
       19.82387
 22
       87.17600
 32
       21.20000
 13
       19.82387
 23
       87.17600
 33
       21.40000
999
Building Shading:GIVAATY 18 - COMPONENT BLOCK 18 - SURFACE 4 (68)
  0
3DFACE
  8
Building Shading
 62
195
 10
       20.38052
 20
       87.64308
 30
       21.40000
 11
       20.38052
 21
       87.64308
 31
       21.20000
 12
       19.82387
 22
       87.17600
 32
       21.20000
 13
       19.82387
 23
       87.17600
 33
       21.40000
999
Building Shading:Mir-GIVAATY 18 - COMPONENT BLOCK 18 - SURFACE 4 (68)
  0
3DFACE
  8
Building Shading
 62
195
 10
       19.82387
 20
       87.17600
 30
       21.40000
 11
       19.82387
 21
       87.17600
 31
       21.20000
 12
       20.38052
 22
       87.64308
 32
       21.20000
 13
       20.38052
 23
       87.64308
 33
       21.40000
999
Building Shading:GIVAATY 18 - COMPONENT BLOCK 18 - SURFACE 5 (69)
  0
3DFACE
  8
Building Shading
 62
195
 10
       22.58817
 20
       85.01210
 30
       21.40000
 11
       22.58817
 21
       85.01210
 31
       21.20000
 12
       20.38052
 22
       87.64308
 32
       21.20000
 13
       20.38052
 23
       87.64308
 33
       21.40000
999
Building Shading:Mir-GIVAATY 18 - COMPONENT BLOCK 18 - SURFACE 5 (69)
  0
3DFACE
  8
Building Shading
 62
195
 10
       20.38052
 20
       87.64308
 30
       21.40000
 11
       20.38052
 21
       87.64308
 31
       21.20000
 12
       22.58817
 22
       85.01210
 32
       21.20000
 13
       22.58817
 23
       85.01210
 33
       21.40000
999
Building Shading:GIVAATY 18 - COMPONENT BLOCK 18 - SURFACE 6 (70)
  0
3DFACE
  8
Building Shading
 62
195
 10
       22.03152
 20
       84.54502
 30
       21.40000
 11
       22.03152
 21
       84.54502
 31
       21.20000
 12
       22.58817
 22
       85.01210
 32
       21.20000
 13
       22.58817
 23
       85.01210
 33
       21.40000
999
Building Shading:Mir-GIVAATY 18 - COMPONENT BLOCK 18 - SURFACE 6 (70)
  0
3DFACE
  8
Building Shading
 62
195
 10
       22.58817
 20
       85.01210
 30
       21.40000
 11
       22.58817
 21
       85.01210
 31
       21.20000
 12
       22.03152
 22
       84.54502
 32
       21.20000
 13
       22.03152
 23
       84.54502
 33
       21.40000
999
Building Shading:GIVAATY 18 - COMPONENT BLOCK 7 - SURFACE 1 (71)
  0
3DFACE
  8
Building Shading
 62
195
 10
        8.26440
 20
       70.64111
 30
       27.65000
 11
        7.34528
 21
       69.86987
 31
       27.65000
 12
        7.31314
 22
       69.90817
 32
       27.65000
 13
        8.23227
 23
       70.67941
 33
       27.65000
999
Building Shading:Mir-GIVAATY 18 - COMPONENT BLOCK 7 - SURFACE 1 (71)
  0
3DFACE
  8
Building Shading
 62
195
 10
        8.23227
 20
       70.67941
 30
       27.65000
 11
        7.31314
 21
       69.90817
 31
       27.65000
 12
        7.34528
 22
       69.86987
 32
       27.65000
 13
        8.26440
 23
       70.64111
 33
       27.65000
999
Building Shading:GIVAATY 18 - COMPONENT BLOCK 7 - SURFACE 2 (72)
  0
3DFACE
  8
Building Shading
 62
195
 10
       21.88748
 20
       82.07223
 30
       27.65000
 11
        8.26440
 21
       70.64111
 31
       27.65000
 12
        7.43550
 22
       71.62896
 32
       27.65000
 13
       21.05857
 23
       83.06008
 33
       27.65000
999
Building Shading:Mir-GIVAATY 18 - COMPONENT BLOCK 7 - SURFACE 2 (72)
  0
3DFACE
  8
Building Shading
 62
195
 10
       21.05857
 20
       83.06008
 30
       27.65000
 11
        7.43550
 21
       71.62896
 31
       27.65000
 12
        8.26440
 22
       70.64111
 32
       27.65000
 13
       21.88748
 23
       82.07223
 33
       27.65000
999
Building Shading:GIVAATY 18 - COMPONENT BLOCK 7 - SURFACE 3 (73)
  0
3DFACE
  8
Building Shading
 62
195
 10
       23.83532
 20
       81.61801
 30
       27.65000
 11
       19.72211
 21
       78.16597
 31
       27.65000
 12
       18.69333
 22
       79.39202
 32
       27.65000
 13
       22.80685
 23
       82.84368
 33
       27.65000
999
Building Shading:Mir-GIVAATY 18 - COMPONENT BLOCK 7 - SURFACE 3 (73)
  0
3DFACE
  8
Building Shading
 62
195
 10
       22.80685
 20
       82.84368
 30
       27.65000
 11
       18.69333
 21
       79.39202
 31
       27.65000
 12
       19.72211
 22
       78.16597
 32
       27.65000
 13
       23.83532
 23
       81.61801
 33
       27.65000
999
Building Shading:GIVAATY 18 - COMPONENT BLOCK 7 - SURFACE 4 (74)
  0
3DFACE
  8
Building Shading
 62
195
 10
       21.52033
 20
       76.02294
 30
       27.65000
 11
       14.16143
 21
       69.84809
 31
       27.65000
 12
       12.36378
 22
       71.99045
 32
       27.65000
 13
       19.72211
 23
       78.16597
 33
       27.65000
999
Building Shading:Mir-GIVAATY 18 - COMPONENT BLOCK 7 - SURFACE 4 (74)
  0
3DFACE
  8
Building Shading
 62
195
 10
       19.72211
 20
       78.16597
 30
       27.65000
 11
       12.36378
 21
       71.99045
 31
       27.65000
 12
       14.16143
 22
       69.84809
 32
       27.65000
 13
       21.52033
 23
       76.02294
 33
       27.65000
999
Building Shading:GIVAATY 18 - COMPONENT BLOCK 7 - SURFACE 5 (75)
  0
3DFACE
  8
Building Shading
 62
195
 10
       19.72211
 20
       78.16597
 30
       27.65000
 11
        8.37493
 21
       68.64278
 31
       27.65000
 12
        7.34528
 22
       69.86987
 32
       27.65000
 13
       18.69333
 23
       79.39202
 33
       27.65000
999
Building Shading:Mir-GIVAATY 18 - COMPONENT BLOCK 7 - SURFACE 5 (75)
  0
3DFACE
  8
Building Shading
 62
195
 10
       18.69333
 20
       79.39202
 30
       27.65000
 11
        7.34528
 21
       69.86987
 31
       27.65000
 12
        8.37493
 22
       68.64278
 32
       27.65000
 13
       19.72211
 23
       78.16597
 33
       27.65000
999
Building Shading:GIVAATY 18 - COMPONENT BLOCK 7 - SURFACE 6 (76)
  0
3DFACE
  8
Building Shading
 62
195
 10
       19.72211
 20
       78.16597
 30
       27.85000
 11
       19.72211
 21
       78.16597
 31
       27.65000
 12
       23.83532
 22
       81.61801
 32
       27.65000
 13
       23.83532
 23
       81.61801
 33
       27.85000
999
Building Shading:Mir-GIVAATY 18 - COMPONENT BLOCK 7 - SURFACE 6 (76)
  0
3DFACE
  8
Building Shading
 62
195
 10
       23.83532
 20
       81.61801
 30
       27.85000
 11
       23.83532
 21
       81.61801
 31
       27.65000
 12
       19.72211
 22
       78.16597
 32
       27.65000
 13
       19.72211
 23
       78.16597
 33
       27.85000
999
Building Shading:GIVAATY 18 - COMPONENT BLOCK 7 - SURFACE 7 (77)
  0
3DFACE
  8
Building Shading
 62
195
 10
       21.52033
 20
       76.02294
 30
       27.85000
 11
       21.52033
 21
       76.02294
 31
       27.65000
 12
       19.72211
 22
       78.16597
 32
       27.65000
 13
       19.72211
 23
       78.16597
 33
       27.85000
999
Building Shading:Mir-GIVAATY 18 - COMPONENT BLOCK 7 - SURFACE 7 (77)
  0
3DFACE
  8
Building Shading
 62
195
 10
       19.72211
 20
       78.16597
 30
       27.85000
 11
       19.72211
 21
       78.16597
 31
       27.65000
 12
       21.52033
 22
       76.02294
 32
       27.65000
 13
       21.52033
 23
       76.02294
 33
       27.85000
999
Building Shading:GIVAATY 18 - COMPONENT BLOCK 7 - SURFACE 8 (78)
  0
3DFACE
  8
Building Shading
 62
195
 10
       14.16143
 20
       69.84809
 30
       27.85000
 11
       14.16143
 21
       69.84809
 31
       27.65000
 12
       21.52033
 22
       76.02294
 32
       27.65000
 13
       21.52033
 23
       76.02294
 33
       27.85000
999
Building Shading:Mir-GIVAATY 18 - COMPONENT BLOCK 7 - SURFACE 8 (78)
  0
3DFACE
  8
Building Shading
 62
195
 10
       21.52033
 20
       76.02294
 30
       27.85000
 11
       21.52033
 21
       76.02294
 31
       27.65000
 12
       14.16143
 22
       69.84809
 32
       27.65000
 13
       14.16143
 23
       69.84809
 33
       27.85000
999
Building Shading:GIVAATY 18 - COMPONENT BLOCK 7 - SURFACE 9 (79)
  0
3DFACE
  8
Building Shading
 62
195
 10
       12.36378
 20
       71.99045
 30
       27.85000
 11
       12.36378
 21
       71.99045
 31
       27.65000
 12
       14.16143
 22
       69.84809
 32
       27.65000
 13
       14.16143
 23
       69.84809
 33
       27.85000
999
Building Shading:Mir-GIVAATY 18 - COMPONENT BLOCK 7 - SURFACE 9 (79)
  0
3DFACE
  8
Building Shading
 62
195
 10
       14.16143
 20
       69.84809
 30
       27.85000
 11
       14.16143
 21
       69.84809
 31
       27.65000
 12
       12.36378
 22
       71.99045
 32
       27.65000
 13
       12.36378
 23
       71.99045
 33
       27.85000
999
Building Shading:GIVAATY 18 - COMPONENT BLOCK 7 - SURFACE 10 (80)
  0
3DFACE
  8
Building Shading
 62
195
 10
        8.37493
 20
       68.64278
 30
       27.85000
 11
        8.37493
 21
       68.64278
 31
       27.65000
 12
       12.36378
 22
       71.99045
 32
       27.65000
 13
       12.36378
 23
       71.99045
 33
       27.85000
999
Building Shading:Mir-GIVAATY 18 - COMPONENT BLOCK 7 - SURFACE 10 (80)
  0
3DFACE
  8
Building Shading
 62
195
 10
       12.36378
 20
       71.99045
 30
       27.85000
 11
       12.36378
 21
       71.99045
 31
       27.65000
 12
        8.37493
 22
       68.64278
 32
       27.65000
 13
        8.37493
 23
       68.64278
 33
       27.85000
999
Building Shading:GIVAATY 18 - COMPONENT BLOCK 7 - SURFACE 11 (81)
  0
3DFACE
  8
Building Shading
 62
195
 10
        7.31314
 20
       69.90817
 30
       27.85000
 11
        7.31314
 21
       69.90817
 31
       27.65000
 12
        8.37493
 22
       68.64278
 32
       27.65000
 13
        8.37493
 23
       68.64278
 33
       27.85000
999
Building Shading:Mir-GIVAATY 18 - COMPONENT BLOCK 7 - SURFACE 11 (81)
  0
3DFACE
  8
Building Shading
 62
195
 10
        8.37493
 20
       68.64278
 30
       27.85000
 11
        8.37493
 21
       68.64278
 31
       27.65000
 12
        7.31314
 22
       69.90817
 32
       27.65000
 13
        7.31314
 23
       69.90817
 33
       27.85000
999
Building Shading:GIVAATY 18 - COMPONENT BLOCK 7 - SURFACE 12 (82)
  0
3DFACE
  8
Building Shading
 62
195
 10
        8.23227
 20
       70.67941
 30
       27.85000
 11
        8.23227
 21
       70.67941
 31
       27.65000
 12
        7.31314
 22
       69.90817
 32
       27.65000
 13
        7.31314
 23
       69.90817
 33
       27.85000
999
Building Shading:Mir-GIVAATY 18 - COMPONENT BLOCK 7 - SURFACE 12 (82)
  0
3DFACE
  8
Building Shading
 62
195
 10
        7.31314
 20
       69.90817
 30
       27.85000
 11
        7.31314
 21
       69.90817
 31
       27.65000
 12
        8.23227
 22
       70.67941
 32
       27.65000
 13
        8.23227
 23
       70.67941
 33
       27.85000
999
Building Shading:GIVAATY 18 - COMPONENT BLOCK 7 - SURFACE 13 (83)
  0
3DFACE
  8
Building Shading
 62
195
 10
        7.43550
 20
       71.62896
 30
       27.85000
 11
        7.43550
 21
       71.62896
 31
       27.65000
 12
        8.23227
 22
       70.67941
 32
       27.65000
 13
        8.23227
 23
       70.67941
 33
       27.85000
999
Building Shading:Mir-GIVAATY 18 - COMPONENT BLOCK 7 - SURFACE 13 (83)
  0
3DFACE
  8
Building Shading
 62
195
 10
        8.23227
 20
       70.67941
 30
       27.85000
 11
        8.23227
 21
       70.67941
 31
       27.65000
 12
        7.43550
 22
       71.62896
 32
       27.65000
 13
        7.43550
 23
       71.62896
 33
       27.85000
999
Building Shading:GIVAATY 18 - COMPONENT BLOCK 7 - SURFACE 14 (84)
  0
3DFACE
  8
Building Shading
 62
195
 10
       21.05857
 20
       83.06008
 30
       27.85000
 11
       21.05857
 21
       83.06008
 31
       27.65000
 12
        7.43550
 22
       71.62896
 32
       27.65000
 13
        7.43550
 23
       71.62896
 33
       27.85000
999
Building Shading:Mir-GIVAATY 18 - COMPONENT BLOCK 7 - SURFACE 14 (84)
  0
3DFACE
  8
Building Shading
 62
195
 10
        7.43550
 20
       71.62896
 30
       27.85000
 11
        7.43550
 21
       71.62896
 31
       27.65000
 12
       21.05857
 22
       83.06008
 32
       27.65000
 13
       21.05857
 23
       83.06008
 33
       27.85000
999
Building Shading:GIVAATY 18 - COMPONENT BLOCK 7 - SURFACE 15 (85)
  0
3DFACE
  8
Building Shading
 62
195
 10
       21.88748
 20
       82.07223
 30
       27.85000
 11
       21.88748
 21
       82.07223
 31
       27.65000
 12
       21.05857
 22
       83.06008
 32
       27.65000
 13
       21.05857
 23
       83.06008
 33
       27.85000
999
Building Shading:Mir-GIVAATY 18 - COMPONENT BLOCK 7 - SURFACE 15 (85)
  0
3DFACE
  8
Building Shading
 62
195
 10
       21.05857
 20
       83.06008
 30
       27.85000
 11
       21.05857
 21
       83.06008
 31
       27.65000
 12
       21.88748
 22
       82.07223
 32
       27.65000
 13
       21.88748
 23
       82.07223
 33
       27.85000
999
Building Shading:GIVAATY 18 - COMPONENT BLOCK 7 - SURFACE 16 (86)
  0
3DFACE
  8
Building Shading
 62
195
 10
       22.80685
 20
       82.84368
 30
       27.85000
 11
       22.80685
 21
       82.84368
 31
       27.65000
 12
       21.88748
 22
       82.07223
 32
       27.65000
 13
       21.88748
 23
       82.07223
 33
       27.85000
999
Building Shading:Mir-GIVAATY 18 - COMPONENT BLOCK 7 - SURFACE 16 (86)
  0
3DFACE
  8
Building Shading
 62
195
 10
       21.88748
 20
       82.07223
 30
       27.85000
 11
       21.88748
 21
       82.07223
 31
       27.65000
 12
       22.80685
 22
       82.84368
 32
       27.65000
 13
       22.80685
 23
       82.84368
 33
       27.85000
999
Building Shading:GIVAATY 18 - COMPONENT BLOCK 7 - SURFACE 17 (87)
  0
3DFACE
  8
Building Shading
 62
195
 10
       23.83532
 20
       81.61801
 30
       27.85000
 11
       23.83532
 21
       81.61801
 31
       27.65000
 12
       22.80685
 22
       82.84368
 32
       27.65000
 13
       22.80685
 23
       82.84368
 33
       27.85000
999
Building Shading:Mir-GIVAATY 18 - COMPONENT BLOCK 7 - SURFACE 17 (87)
  0
3DFACE
  8
Building Shading
 62
195
 10
       22.80685
 20
       82.84368
 30
       27.85000
 11
       22.80685
 21
       82.84368
 31
       27.65000
 12
       23.83532
 22
       81.61801
 32
       27.65000
 13
       23.83532
 23
       81.61801
 33
       27.85000
999
Building Shading:GIVAATY 18 - COMPONENT BLOCK 7 - SURFACE 18 (88)
  0
3DFACE
  8
Building Shading
 62
195
 10
       10.50553
 20
       74.20502
 30
       27.85000
 11
        7.43550
 21
       71.62896
 31
       27.85000
 12
        8.23227
 22
       70.67941
 32
       27.85000
 13
       11.30230
 23
       73.25547
 33
       27.85000
999
Building Shading:Mir-GIVAATY 18 - COMPONENT BLOCK 7 - SURFACE 18 (88)
  0
3DFACE
  8
Building Shading
 62
195
 10
       11.30230
 20
       73.25547
 30
       27.85000
 11
        8.23227
 21
       70.67941
 31
       27.85000
 12
        7.43550
 22
       71.62896
 32
       27.85000
 13
       10.50553
 23
       74.20502
 33
       27.85000
999
Building Shading:GIVAATY 18 - COMPONENT BLOCK 7 - SURFACE 19 (89)
  0
3DFACE
  8
Building Shading
 62
195
 10
       11.30230
 20
       73.25547
 30
       27.85000
 11
        7.31314
 21
       69.90817
 31
       27.85000
 12
        8.37493
 22
       68.64278
 32
       27.85000
 13
       12.36378
 23
       71.99045
 33
       27.85000
999
Building Shading:Mir-GIVAATY 18 - COMPONENT BLOCK 7 - SURFACE 19 (89)
  0
3DFACE
  8
Building Shading
 62
195
 10
       12.36378
 20
       71.99045
 30
       27.85000
 11
        8.37493
 21
       68.64278
 31
       27.85000
 12
        7.31314
 22
       69.90817
 32
       27.85000
 13
       11.30230
 23
       73.25547
 33
       27.85000
999
Building Shading:GIVAATY 18 - COMPONENT BLOCK 7 - SURFACE 20 (90)
  0
3DFACE
  8
Building Shading
 62
195
 10
       19.72211
 20
       78.16597
 30
       27.85000
 11
       12.36378
 21
       71.99045
 31
       27.85000
 12
       14.16143
 22
       69.84809
 32
       27.85000
 13
       21.52033
 23
       76.02294
 33
       27.85000
999
Building Shading:Mir-GIVAATY 18 - COMPONENT BLOCK 7 - SURFACE 20 (90)
  0
3DFACE
  8
Building Shading
 62
195
 10
       21.52033
 20
       76.02294
 30
       27.85000
 11
       14.16143
 21
       69.84809
 31
       27.85000
 12
       12.36378
 22
       71.99045
 32
       27.85000
 13
       19.72211
 23
       78.16597
 33
       27.85000
999
Building Shading:GIVAATY 18 - COMPONENT BLOCK 7 - SURFACE 21 (91)
  0
3DFACE
  8
Building Shading
 62
195
 10
       22.80685
 20
       82.84368
 30
       27.85000
 11
       21.88748
 21
       82.07223
 31
       27.85000
 12
       22.91601
 22
       80.84647
 32
       27.85000
 13
       23.83532
 23
       81.61801
 33
       27.85000
999
Building Shading:Mir-GIVAATY 18 - COMPONENT BLOCK 7 - SURFACE 21 (91)
  0
3DFACE
  8
Building Shading
 62
195
 10
       23.83532
 20
       81.61801
 30
       27.85000
 11
       22.91601
 21
       80.84647
 31
       27.85000
 12
       21.88748
 22
       82.07223
 32
       27.85000
 13
       22.80685
 23
       82.84368
 33
       27.85000
999
Building Shading:GIVAATY 18 - COMPONENT BLOCK 7 - SURFACE 22 (92)
  0
3DFACE
  8
Building Shading
 62
195
 10
       21.05857
 20
       83.06008
 30
       27.85000
 11
       10.50553
 21
       74.20502
 31
       27.85000
 12
       12.36378
 22
       71.99045
 32
       27.85000
 13
       22.91601
 23
       80.84647
 33
       27.85000
999
Building Shading:Mir-GIVAATY 18 - COMPONENT BLOCK 7 - SURFACE 22 (92)
  0
3DFACE
  8
Building Shading
 62
195
 10
       22.91601
 20
       80.84647
 30
       27.85000
 11
       12.36378
 21
       71.99045
 31
       27.85000
 12
       10.50553
 22
       74.20502
 32
       27.85000
 13
       21.05857
 23
       83.06008
 33
       27.85000
999
Building Shading:GIVAATY 18 - COMPONENT BLOCK 9 - SURFACE 1 (93)
  0
3DFACE
  8
Building Shading
 62
195
 10
        3.24013
 20
       76.00631
 30
       24.35000
 11
        2.34002
 21
       75.25103
 31
       24.35000
 12
        1.54669
 22
       76.19649
 32
       24.35000
 13
        2.44680
 23
       76.95176
 33
       24.35000
999
Building Shading:Mir-GIVAATY 18 - COMPONENT BLOCK 9 - SURFACE 1 (93)
  0
3DFACE
  8
Building Shading
 62
195
 10
        2.44680
 20
       76.95176
 30
       24.35000
 11
        1.54669
 21
       76.19649
 31
       24.35000
 12
        2.34002
 22
       75.25103
 32
       24.35000
 13
        3.24013
 23
       76.00631
 33
       24.35000
999
Building Shading:GIVAATY 18 - COMPONENT BLOCK 9 - SURFACE 2 (94)
  0
3DFACE
  8
Building Shading
 62
195
 10
        2.44680
 20
       76.95176
 30
       24.35000
 11
        0.60354
 21
       75.40509
 31
       24.35000
 12
       -1.60204
 22
       78.03360
 32
       24.35000
 13
        0.24122
 23
       79.58027
 33
       24.35000
999
Building Shading:Mir-GIVAATY 18 - COMPONENT BLOCK 9 - SURFACE 2 (94)
  0
3DFACE
  8
Building Shading
 62
195
 10
        0.24122
 20
       79.58027
 30
       24.35000
 11
       -1.60204
 21
       78.03360
 31
       24.35000
 12
        0.60354
 22
       75.40509
 32
       24.35000
 13
        2.44680
 23
       76.95176
 33
       24.35000
999
Building Shading:GIVAATY 18 - COMPONENT BLOCK 9 - SURFACE 3 (95)
  0
3DFACE
  8
Building Shading
 62
195
 10
       -0.65889
 20
       78.82500
 30
       24.55000
 11
       -1.60204
 21
       78.03360
 31
       24.55000
 12
        0.60354
 22
       75.40509
 32
       24.55000
 13
        1.54669
 23
       76.19649
 33
       24.55000
999
Building Shading:Mir-GIVAATY 18 - COMPONENT BLOCK 9 - SURFACE 3 (95)
  0
3DFACE
  8
Building Shading
 62
195
 10
        1.54669
 20
       76.19649
 30
       24.55000
 11
        0.60354
 21
       75.40509
 31
       24.55000
 12
       -1.60204
 22
       78.03360
 32
       24.55000
 13
       -0.65889
 23
       78.82500
 33
       24.55000
999
Building Shading:GIVAATY 18 - COMPONENT BLOCK 9 - SURFACE 4 (96)
  0
3DFACE
  8
Building Shading
 62
195
 10
        0.24122
 20
       79.58027
 30
       24.55000
 11
       -0.65889
 21
       78.82500
 31
       24.55000
 12
        2.34002
 22
       75.25103
 32
       24.55000
 13
        3.24013
 23
       76.00631
 33
       24.55000
999
Building Shading:Mir-GIVAATY 18 - COMPONENT BLOCK 9 - SURFACE 4 (96)
  0
3DFACE
  8
Building Shading
 62
195
 10
        3.24013
 20
       76.00631
 30
       24.55000
 11
        2.34002
 21
       75.25103
 31
       24.55000
 12
       -0.65889
 22
       78.82500
 32
       24.55000
 13
        0.24122
 23
       79.58027
 33
       24.55000
999
Building Shading:GIVAATY 18 - COMPONENT BLOCK 9 - SURFACE 5 (97)
  0
3DFACE
  8
Building Shading
 62
195
 10
        0.24122
 20
       79.58027
 30
       24.55000
 11
        0.24122
 21
       79.58027
 31
       24.35000
 12
       -1.60204
 22
       78.03360
 32
       24.35000
 13
       -1.60204
 23
       78.03360
 33
       24.55000
999
Building Shading:Mir-GIVAATY 18 - COMPONENT BLOCK 9 - SURFACE 5 (97)
  0
3DFACE
  8
Building Shading
 62
195
 10
       -1.60204
 20
       78.03360
 30
       24.55000
 11
       -1.60204
 21
       78.03360
 31
       24.35000
 12
        0.24122
 22
       79.58027
 32
       24.35000
 13
        0.24122
 23
       79.58027
 33
       24.55000
999
Building Shading:GIVAATY 18 - COMPONENT BLOCK 9 - SURFACE 6 (98)
  0
3DFACE
  8
Building Shading
 62
195
 10
        3.24013
 20
       76.00631
 30
       24.55000
 11
        3.24013
 21
       76.00631
 31
       24.35000
 12
        0.24122
 22
       79.58027
 32
       24.35000
 13
        0.24122
 23
       79.58027
 33
       24.55000
999
Building Shading:Mir-GIVAATY 18 - COMPONENT BLOCK 9 - SURFACE 6 (98)
  0
3DFACE
  8
Building Shading
 62
195
 10
        0.24122
 20
       79.58027
 30
       24.55000
 11
        0.24122
 21
       79.58027
 31
       24.35000
 12
        3.24013
 22
       76.00631
 32
       24.35000
 13
        3.24013
 23
       76.00631
 33
       24.55000
999
Building Shading:GIVAATY 18 - COMPONENT BLOCK 9 - SURFACE 7 (99)
  0
3DFACE
  8
Building Shading
 62
195
 10
        2.34002
 20
       75.25103
 30
       24.55000
 11
        2.34002
 21
       75.25103
 31
       24.35000
 12
        3.24013
 22
       76.00631
 32
       24.35000
 13
        3.24013
 23
       76.00631
 33
       24.55000
999
Building Shading:Mir-GIVAATY 18 - COMPONENT BLOCK 9 - SURFACE 7 (99)
  0
3DFACE
  8
Building Shading
 62
195
 10
        3.24013
 20
       76.00631
 30
       24.55000
 11
        3.24013
 21
       76.00631
 31
       24.35000
 12
        2.34002
 22
       75.25103
 32
       24.35000
 13
        2.34002
 23
       75.25103
 33
       24.55000
999
[...]
       20.36041
 21
       86.53685
 31
       28.95000
 12
       19.91046
 22
       87.07308
 32
       28.95000
 13
       19.91046
 23
       87.07308
 33
       30.05000
999
08:64XSERVICE:08:64XSERVICE_WALL_4_0_0
  0
3DFACE
  8
08_64XSERVICE
 62
 43
 10
       18.94334
 20
       88.22564
 30
       31.65000
 11
       18.94334
 21
       88.22564
 31
       27.85000
 12
       17.48633
 22
       87.00306
 32
       27.85000
 13
       17.48633
 23
       87.00306
 33
       31.65000
999
08:64XSERVICE:08:64XSERVICE_LINEAR BRIDGE
  0
3DFACE
  8
08_64XSERVICE
 62
 43
 10
      -20.23840
 20
       77.74720
 30
      -11.20000
 11
      -20.23840
 21
       77.74720
 31
      -12.20000
 12
      -23.21900
 22
       77.74720
 32
      -12.20000
 13
      -23.21900
 23
       77.74720
 33
      -11.20000
999
08:64XSERVICE:08:64XSERVICE_FLOOR_0_0_10268
  0
3DFACE
  8
08_64XSERVICE
 62
  8
 10
       18.94334
 20
       88.22564
 30
       27.85000
 11
       20.55031
 21
       86.31053
 31
       27.85000
 12
       18.90179
 22
       84.92726
 32
       27.85000
 13
       17.29482
 23
       86.84237
 33
       27.85000
999
08:64XSERVICE:08:64XSERVICE_ROOF_1_0_0
  0
3DFACE
  8
08_64XSERVICE
 62
 15
 10
       18.94334
 20
       88.22564
 30
       31.65000
 11
       17.29482
 21
       86.84237
 31
       31.65000
 12
       18.90179
 22
       84.92726
 32
       31.65000
 13
       20.55031
 23
       86.31053
 33
       31.65000
999
08:64XSERVICE1:08:64XSERVICE1_PARTITION_4_0_10298
  0
3DFACE
  8
08_64XSERVICE1
 62
 43
 10
       14.02246
 20
       83.44383
 30
       31.65000
 11
       14.02246
 21
       83.44383
 31
       27.85000
 12
       13.08611
 22
       82.65814
 32
       27.85000
 13
       13.08611
 23
       82.65814
 33
       31.65000
999
08:64XSERVICE1:08:64XSERVICE1_PARTITION_3_0_10299
  0
3DFACE
  8
08_64XSERVICE1
 62
 43
 10
       15.14734
 20
       82.10325
 30
       31.65000
 11
       15.14734
 21
       82.10325
 31
       27.85000
 12
       14.02246
 22
       83.44383
 32
       27.85000
 13
       14.02246
 23
       83.44383
 33
       31.65000
999
08:64XSERVICE1:08:64XSERVICE1_PARTITION_2_0_10300
  0
3DFACE
  8
08_64XSERVICE1
 62
 43
 10
       14.99413
 20
       81.97469
 30
       31.65000
 11
       14.99413
 21
       81.97469
 31
       27.85000
 12
       15.14734
 22
       82.10325
 32
       27.85000
 13
       15.14734
 23
       82.10325
 33
       31.65000
999
08:64XSERVICE1:08:64XSERVICE1_PARTITION_5_0_0
  0
3DFACE
  8
08_64XSERVICE1
 62
 43
 10
       13.08611
 20
       82.65814
 30
       31.65000
 11
       13.08611
 21
       82.65814
 31
       27.85000
 12
       11.72295
 22
       81.51431
 32
       27.85000
 13
       11.72295
 23
       81.51431
 33
       31.65000
999
08:64XSERVICE1:08:64XSERVICE1_WALL_6_0_0
  0
3DFACE
  8
08_64XSERVICE1
 62
 43
 10
       11.72295
 20
       81.51431
 30
       31.65000
 11
       11.72295
 21
       81.51431
 31
       27.85000
 12
       12.84783
 22
       80.17373
 32
       27.85000
 13
       12.84783
 23
       80.17373
 33
       31.65000
999
08:64XSERVICE1:08:64XSERVICE1_WALL_7_0_0
  0
3DFACE
  8
08_64XSERVICE1
 62
 43
 10
       12.84783
 20
       80.17373
 30
       31.65000
 11
       12.84783
 21
       80.17373
 31
       27.85000
 12
       14.99413
 22
       81.97469
 32
       27.85000
 13
       14.99413
 23
       81.97469
 33
       31.65000
999
08:64XSERVICE1:08:64XSERVICE1_WALL_7_0_0_0_0_0_WIN
  0
3DFACE
  8
08_64XSERVICE1
 62
143
 10
       13.66121
 20
       80.85624
 30
       30.05000
 11
       13.66121
 21
       80.85624
 31
       28.95000
 12
       14.19744
 22
       81.30620
 32
       28.95000
 13
       14.19744
 23
       81.30620
 33
       30.05000
999
08:64XSERVICE1:08:64XSERVICE1_LINEAR BRIDGE
  0
3DFACE
  8
08_64XSERVICE1
 62
 43
 10
      -20.23840
 20
       77.74720
 30
      -12.30000
 11
      -20.23840
 21
       77.74720
 31
      -13.30000
 12
      -23.79440
 22
       77.74720
 32
      -13.30000
 13
      -23.79440
 23
       77.74720
 33
      -12.30000
999
08:64XSERVICE1:08:64XSERVICE1_FLOOR_0_0_10269
  0
3DFACE
  8
08_64XSERVICE1
 62
  8
 10
       14.02246
 20
       83.44383
 30
       27.85000
 11
       15.14734
 21
       82.10325
 31
       27.85000
 12
       12.84783
 22
       80.17373
 32
       27.85000
 13
       11.72295
 23
       81.51431
 33
       27.85000
999
08:64XSERVICE1:08:64XSERVICE1_ROOF_1_0_0
  0
3DFACE
  8
08_64XSERVICE1
 62
 15
 10
       14.02246
 20
       83.44383
 30
       31.65000
 11
       11.72295
 21
       81.51431
 31
       31.65000
 12
       12.84783
 22
       80.17373
 32
       31.65000
 13
       15.14734
 23
       82.10325
 33
       31.65000
999
08:CORE:08:CORE_PARTITION_4_0_10296
  0
3DFACE
  8
08_CORE
 62
 43
 10
       10.59611
 20
       85.62561
 30
       31.65000
 11
       10.59611
 21
       85.62561
 31
       27.85000
 12
        8.55077
 22
       83.90937
 32
       27.85000
 13
        8.55077
 23
       83.90937
 33
       31.65000
999
08:CORE:08:CORE_PARTITION_3_0_10297
  0
3DFACE
  8
08_CORE
 62
 43
 10
       13.08611
 20
       82.65814
 30
       31.65000
 11
       13.08611
 21
       82.65814
 31
       27.85000
 12
       10.59611
 22
       85.62561
 32
       27.85000
 13
       10.59611
 23
       85.62561
 33
       31.65000
999
08:CORE:08:CORE_PARTITION_6_0_10339
  0
3DFACE
  8
08_CORE
 62
 43
 10
        6.50543
 20
       82.19312
 30
       31.65000
 11
        6.50543
 21
       82.19312
 31
       27.85000
 12
        8.99543
 22
       79.22566
 32
       27.85000
 13
        8.99543
 23
       79.22566
 33
       31.65000
999
08:CORE:08:CORE_PARTITION_5_0_10340
  0
3DFACE
  8
08_CORE
 62
 43
 10
        8.55077
 20
       83.90937
 30
       31.65000
 11
        8.55077
 21
       83.90937
 31
       27.85000
 12
        6.50543
 22
       82.19312
 32
       27.85000
 13
        6.50543
 23
       82.19312
 33
       31.65000
999
08:CORE:08:CORE_PARTITION_2_0_10357
  0
3DFACE
  8
08_CORE
 62
 43
 10
       11.72295
 20
       81.51431
 30
       31.65000
 11
       11.72295
 21
       81.51431
 31
       27.85000
 12
       13.08611
 22
       82.65814
 32
       27.85000
 13
       13.08611
 23
       82.65814
 33
       31.65000
999
08:CORE:08:CORE_PARTITION_7_0_0
  0
3DFACE
  8
08_CORE
 62
 43
 10
        8.99543
 20
       79.22566
 30
       31.65000
 11
        8.99543
 21
       79.22566
 31
       27.85000
 12
       10.26746
 22
       80.29302
 32
       27.85000
 13
       10.26746
 23
       80.29302
 33
       31.65000
999
08:CORE:08:CORE_WALL_8_0_0
  0
3DFACE
  8
08_CORE
 62
 43
 10
       10.26746
 20
       80.29302
 30
       31.65000
 11
       10.26746
 21
       80.29302
 31
       27.85000
 12
       11.72295
 22
       81.51431
 32
       27.85000
 13
       11.72295
 23
       81.51431
 33
       31.65000
999
08:CORE:08:CORE_LINEAR BRIDGE
  0
3DFACE
  8
08_CORE
 62
 43
 10
      -20.23840
 20
       77.74720
 30
      -13.40000
 11
      -20.23840
 21
       77.74720
 31
      -14.40000
 12
      -21.85340
 22
       77.74720
 32
      -14.40000
 13
      -21.85340
 23
       77.74720
 33
      -13.40000
999
08:CORE:08:CORE_FLOOR_0_0_10304
  0
3DFACE
  8
08_CORE
 62
  8
 10
       10.59611
 20
       85.62561
 30
       27.85000
 11
       13.08611
 21
       82.65814
 31
       27.85000
 12
        8.99543
 22
       79.22566
 32
       27.85000
 13
        6.50543
 23
       82.19312
 33
       27.85000
999
08:CORE:08:CORE_ROOF_1_0_0
  0
3DFACE
  8
08_CORE
 62
 15
 10
       10.59611
 20
       85.62561
 30
       31.65000
 11
        6.50543
 21
       82.19312
 31
       31.65000
 12
        8.99543
 22
       79.22566
 32
       31.65000
 13
       13.08611
 23
       82.65814
 33
       31.65000
999
08:63XSERVICE1:08:63XSERVICE1_PARTITION_5_0_10338
  0
3DFACE
  8
08_63XSERVICE1
 62
 43
 10
        8.99543
 20
       79.22566
 30
       31.65000
 11
        8.99543
 21
       79.22566
 31
       27.85000
 12
        7.92364
 22
       78.32632
 32
       27.85000
 13
        7.92364
 23
       78.32632
 33
       31.65000
999
08:63XSERVICE1:08:63XSERVICE1_PARTITION_7_0_10347
  0
3DFACE
  8
08_63XSERVICE1
 62
 43
 10
        9.04852
 20
       76.98573
 30
       31.65000
 11
        9.04852
 21
       76.98573
 31
       27.85000
 12
        9.20173
 22
       77.11429
 32
       27.85000
 13
        9.20173
 23
       77.11429
 33
       31.65000
999
08:63XSERVICE1:08:63XSERVICE1_PARTITION_6_0_10348
  0
3DFACE
  8
08_63XSERVICE1
 62
 43
 10
        7.92364
 20
       78.32632
 30
       31.65000
 11
        7.92364
 21
       78.32632
 31
       27.85000
 12
        9.04852
 22
       76.98573
 32
       27.85000
 13
        9.04852
 23
       76.98573
 33
       31.65000
999
08:63XSERVICE1:08:63XSERVICE1_PARTITION_4_0_10358
  0
3DFACE
  8
08_63XSERVICE1
 62
 43
 10
       10.26746
 20
       80.29302
 30
       31.65000
 11
       10.26746
 21
       80.29302
 31
       27.85000
 12
        8.99543
 22
       79.22566
 32
       27.85000
 13
        8.99543
 23
       79.22566
 33
       31.65000
999
08:63XSERVICE1:08:63XSERVICE1_WALL_2_0_0
  0
3DFACE
  8
08_63XSERVICE1
 62
 43
 10
        9.20173
 20
       77.11429
 30
       31.65000
 11
        9.20173
 21
       77.11429
 31
       27.85000
 12
       11.39234
 22
       78.95244
 32
       27.85000
 13
       11.39234
 23
       78.95244
 33
       31.65000
999
08:63XSERVICE1:08:63XSERVICE1_WALL_2_0_0_0_0_0_WIN
  0
3DFACE
  8
08_63XSERVICE1
 62
143
 10
       10.05204
 20
       77.82779
 30
       30.05000
 11
       10.05204
 21
       77.82779
 31
       28.95000
 12
       10.58827
 22
       78.27774
 32
       28.95000
 13
       10.58827
 23
       78.27774
 33
       30.05000
999
08:63XSERVICE1:08:63XSERVICE1_WALL_3_0_0
  0
3DFACE
  8
08_63XSERVICE1
 62
 43
 10
       11.39234
 20
       78.95244
 30
       31.65000
 11
       11.39234
 21
       78.95244
 31
       27.85000
 12
       10.26746
 22
       80.29302
 32
       27.85000
 13
       10.26746
 23
       80.29302
 33
       31.65000
999
08:63XSERVICE1:08:63XSERVICE1_LINEAR BRIDGE
  0
3DFACE
  8
08_63XSERVICE1
 62
 43
 10
      -20.23840
 20
       77.74720
 30
      -14.50000
 11
      -20.23840
 21
       77.74720
 31
      -15.50000
 12
      -23.81120
 22
       77.74720
 32
      -15.50000
 13
      -23.81120
 23
       77.74720
 33
      -14.50000
999
08:63XSERVICE1:08:63XSERVICE1_FLOOR_0_0_10310
  0
3DFACE
  8
08_63XSERVICE1
 62
  8
 10
       10.26746
 20
       80.29302
 30
       27.85000
 11
       11.39234
 21
       78.95244
 31
       27.85000
 12
        9.04852
 22
       76.98573
 32
       27.85000
 13
        7.92364
 23
       78.32632
 33
       27.85000
999
08:63XSERVICE1:08:63XSERVICE1_ROOF_1_0_0
  0
3DFACE
  8
08_63XSERVICE1
 62
 15
 10
       10.26746
 20
       80.29302
 30
       31.65000
 11
        7.92364
 21
       78.32632
 31
       31.65000
 12
        9.04852
 22
       76.98573
 32
       31.65000
 13
       11.39234
 23
       78.95244
 33
       31.65000
999
08:63XSERVICE:08:63XSERVICE_PARTITION_4_0_10341
  0
3DFACE
  8
08_63XSERVICE
 62
 43
 10
        4.31780
 20
       75.88809
 30
       31.65000
 11
        4.31780
 21
       75.88809
 31
       27.85000
 12
        4.16459
 22
       75.75953
 32
       27.85000
 13
        4.16459
 23
       75.75953
 33
       31.65000
999
08:63XSERVICE:08:63XSERVICE_PARTITION_3_0_10342
  0
3DFACE
  8
08_63XSERVICE
 62
 43
 10
        5.89264
 20
       74.01126
 30
       31.65000
 11
        5.89264
 21
       74.01126
 31
       27.85000
 12
        4.31780
 22
       75.88809
 32
       27.85000
 13
        4.31780
 23
       75.88809
 33
       31.65000
999
08:63XSERVICE:08:63XSERVICE_PARTITION_2_0_10343
  0
3DFACE
  8
08_63XSERVICE
 62
 43
 10
        4.32283
 20
       72.69403
 30
       31.65000
 11
        4.32283
 21
       72.69403
 31
       27.85000
 12
        5.89264
 22
       74.01126
 32
       27.85000
 13
        5.89264
 23
       74.01126
 33
       31.65000
999
08:63XSERVICE:08:63XSERVICE_WALL_5_0_0
  0
3DFACE
  8
08_63XSERVICE
 62
 43
 10
        4.16459
 20
       75.75953
 30
       31.65000
 11
        4.16459
 21
       75.75953
 31
       27.85000
 12
        2.74799
 22
       74.57086
 32
       27.85000
 13
        2.74799
 23
       74.57086
 33
       31.65000
999
08:63XSERVICE:08:63XSERVICE_WALL_6_0_0
  0
3DFACE
  8
08_63XSERVICE
 62
 43
 10
        2.74799
 20
       74.57086
 30
       31.65000
 11
        2.74799
 21
       74.57086
 31
       27.85000
 12
        4.32283
 22
       72.69403
 32
       27.85000
 13
        4.32283
 23
       72.69403
 33
       31.65000
999
08:63XSERVICE:08:63XSERVICE_WALL_6_0_0_0_0_0_WIN
  0
3DFACE
  8
08_63XSERVICE
 62
143
 10
        3.67762
 20
       73.46297
 30
       30.05000
 11
        3.67762
 21
       73.46297
 31
       28.95000
 12
        4.12757
 22
       72.92674
 32
       28.95000
 13
        4.12757
 23
       72.92674
 33
       30.05000
999
08:63XSERVICE:08:63XSERVICE_LINEAR BRIDGE
  0
3DFACE
  8
08_63XSERVICE
 62
 43
 10
      -20.23840
 20
       77.74720
 30
      -15.60000
 11
      -20.23840
 21
       77.74720
 31
      -16.60000
 12
      -23.18920
 22
       77.74720
 32
      -16.60000
 13
      -23.18920
 23
       77.74720
 33
      -15.60000
999
08:63XSERVICE:08:63XSERVICE_FLOOR_0_0_10318
  0
3DFACE
  8
08_63XSERVICE
 62
  8
 10
        4.31780
 20
       75.88809
 30
       27.85000
 11
        5.89264
 21
       74.01126
 31
       27.85000
 12
        4.32283
 22
       72.69403
 32
       27.85000
 13
        2.74799
 23
       74.57086
 33
       27.85000
999
08:63XSERVICE:08:63XSERVICE_ROOF_1_0_0
  0
3DFACE
  8
08_63XSERVICE
 62
 15
 10
        4.31780
 20
       75.88809
 30
       31.65000
 11
        2.74799
 21
       74.57086
 31
       31.65000
 12
        4.32283
 22
       72.69403
 32
       31.65000
 13
        5.89264
 23
       74.01126
 33
       31.65000
999
08:63XMAMAD:08:63XMAMAD_PARTITION_6_0_10344
  0
3DFACE
  8
08_63XMAMAD
 62
 43
 10
        6.15036
 20
       71.06030
 30
       31.65000
 11
        6.15036
 21
       71.06030
 31
       27.85000
 12
        5.88238
 22
       70.83544
 32
       27.85000
 13
        5.88238
 23
       70.83544
 33
       31.65000
999
08:63XMAMAD:08:63XMAMAD_PARTITION_5_0_10345
  0
3DFACE
  8
08_63XMAMAD
 62
 43
 10
        7.19811
 20
       69.81165
 30
       31.65000
 11
        7.19811
 21
       69.81165
 31
       27.85000
 12
        6.15036
 22
       71.06030
 32
       27.85000
 13
        6.15036
 23
       71.06030
 33
       31.65000
999
08:63XMAMAD:08:63XMAMAD_PARTITION_4_0_10346
  0
3DFACE
  8
08_63XMAMAD
 62
 43
 10
        7.31314
 20
       69.90817
 30
       31.65000
 11
        7.31314
 21
       69.90817
 31
       27.85000
 12
        7.19811
 22
       69.81165
 32
       27.85000
 13
        7.19811
 23
       69.81165
 33
       31.65000
999
08:63XMAMAD:08:63XMAMAD_WALL_2_0_0
  0
3DFACE
  8
08_63XMAMAD
 62
 43
 10
        6.20141
 20
       65.45073
 30
       31.65000
 11
        6.20141
 21
       65.45073
 31
       27.85000
 12
        9.04867
 22
       67.83986
 32
       27.85000
 13
        9.04867
 23
       67.83986
 33
       31.65000
999
08:63XMAMAD:08:63XMAMAD_WALL_2_0_0_0_0_0_WIN
  0
3DFACE
  8
08_63XMAMAD
 62
143
 10
        6.72999
 20
       65.89425
 30
       29.89995
 11
        6.72999
 21
       65.89425
 31
       28.89995
 12
        7.41943
 22
       66.47276
 32
       28.89995
 13
        7.41943
 23
       66.47276
 33
       29.89995
999
08:63XMAMAD:08:63XMAMAD_WALL_3_0_0
  0
3DFACE
  8
08_63XMAMAD
 62
 43
 10
        9.04867
 20
       67.83986
 30
       31.65000
 11
        9.04867
 21
       67.83986
 31
       27.85000
 12
        7.31314
 22
       69.90817
 32
       27.85000
 13
        7.31314
 23
       69.90817
 33
       31.65000
999
08:63XMAMAD:08:63XMAMAD_WALL_7_0_0
  0
3DFACE
  8
08_63XMAMAD
 62
 43
 10
        5.88238
 20
       70.83544
 30
       31.65000
 11
        5.88238
 21
       70.83544
 31
       27.85000
 12
        3.41814
 22
       68.76770
 32
       27.85000
 13
        3.41814
 23
       68.76770
 33
       31.65000
999
08:63XMAMAD:08:63XMAMAD_WALL_8_0_0
  0
3DFACE
  8
08_63XMAMAD
 62
 43
 10
        3.41814
 20
       68.76770
 30
       31.65000
 11
        3.41814
 21
       68.76770
 31
       27.85000
 12
        6.20141
 22
       65.45073
 32
       27.85000
 13
        6.20141
 23
       65.45073
 33
       31.65000
999
08:63XMAMAD:08:63XMAMAD_LINEAR BRIDGE
  0
3DFACE
  8
08_63XMAMAD
 62
 43
 10
      -20.23840
 20
       77.74720
 30
      -16.70000
 11
      -20.23840
 21
       77.74720
 31
      -17.70000
 12
      -27.67590
 22
       77.74720
 32
      -17.70000
 13
      -27.67590
 23
       77.74720
 33
      -16.70000
999
08:63XMAMAD:08:63XMAMAD_FLOOR_0_0_10355
  0
3DFACE
  8
08_63XMAMAD
 62
  8
 10
        7.31314
 20
       69.90817
 30
       27.85000
 11
        9.04867
 21
       67.83986
 31
       27.85000
 12
        8.93363
 22
       67.74333
 32
       27.85000
 13
        7.19811
 23
       69.81165
 33
       27.85000
999
08:63XMAMAD:08:63XMAMAD_FLOOR_0_0_10356
  0
3DFACE
  8
08_63XMAMAD
 62
  8
 10
        6.15036
 20
       71.06030
 30
       27.85000
 11
        8.93363
 21
       67.74333
 31
       27.85000
 12
        6.20141
 22
       65.45073
 32
       27.85000
 13
        3.41814
 23
       68.76770
 33
       27.85000
999
08:63XMAMAD:08:63XMAMAD_ROOF_1_0_0
  0
3DFACE
  8
08_63XMAMAD
 62
 15
 10
        7.31314
 20
       69.90817
 30
       31.65000
 11
        7.19811
 21
       69.81165
 31
       31.65000
 12
        8.93363
 22
       67.74333
 32
       31.65000
 13
        9.04867
 23
       67.83986
 33
       31.65000
999
08:63XMAMAD:08:63XMAMAD_ROOF_1_0_1
  0
3DFACE
  8
08_63XMAMAD
 62
 15
 10
        6.15036
 20
       71.06030
 30
       31.65000
 11
        3.41814
 21
       68.76770
 31
       31.65000
 12
        6.20141
 22
       65.45073
 32
       31.65000
 13
        8.93363
 23
       67.74333
 33
       31.65000
  0
ENDSEC
  0
EOF
